* NGSPICE file created from ACMP_SAR.ext - technology: sky130A

* Black-box entry subcircuit for sky130_fd_sc_hd__decap_8 abstract view
.subckt sky130_fd_sc_hd__decap_8 VGND VNB VPB VPWR
.ends

* Black-box entry subcircuit for sky130_fd_sc_hd__decap_12 abstract view
.subckt sky130_fd_sc_hd__decap_12 VGND VNB VPB VPWR
.ends

* Black-box entry subcircuit for sky130_fd_sc_hd__tapvpwrvgnd_1 abstract view
.subckt sky130_fd_sc_hd__tapvpwrvgnd_1 VGND VPWR
.ends

* Black-box entry subcircuit for sky130_fd_sc_hd__decap_3 abstract view
.subckt sky130_fd_sc_hd__decap_3 VGND VNB VPB VPWR
.ends

* Black-box entry subcircuit for sky130_fd_sc_hd__decap_4 abstract view
.subckt sky130_fd_sc_hd__decap_4 VGND VNB VPB VPWR
.ends

* Black-box entry subcircuit for sky130_fd_sc_hd__decap_6 abstract view
.subckt sky130_fd_sc_hd__decap_6 VGND VNB VPB VPWR
.ends

* Black-box entry subcircuit for sky130_fd_sc_hd__fill_2 abstract view
.subckt sky130_fd_sc_hd__fill_2 VGND VNB VPB VPWR
.ends

* Black-box entry subcircuit for sky130_fd_sc_hd__o311a_2 abstract view
.subckt sky130_fd_sc_hd__o311a_2 A1 A2 A3 B1 C1 VGND VNB VPB VPWR X
.ends

* Black-box entry subcircuit for sky130_fd_sc_hd__fill_1 abstract view
.subckt sky130_fd_sc_hd__fill_1 VGND VNB VPB VPWR
.ends

* Black-box entry subcircuit for sky130_fd_sc_hd__dfxtp_4 abstract view
.subckt sky130_fd_sc_hd__dfxtp_4 CLK D VGND VNB VPB VPWR Q
.ends

* Black-box entry subcircuit for sky130_fd_sc_hd__diode_2 abstract view
.subckt sky130_fd_sc_hd__diode_2 DIODE VGND VNB VPB VPWR
.ends

* Black-box entry subcircuit for sky130_fd_sc_hd__clkbuf_2 abstract view
.subckt sky130_fd_sc_hd__clkbuf_2 A VGND VNB VPB VPWR X
.ends

* Black-box entry subcircuit for sky130_fd_sc_hd__a31o_1 abstract view
.subckt sky130_fd_sc_hd__a31o_1 A1 A2 A3 B1 VGND VNB VPB VPWR X
.ends

* Black-box entry subcircuit for sky130_fd_sc_hd__buf_6 abstract view
.subckt sky130_fd_sc_hd__buf_6 A VGND VNB VPB VPWR X
.ends

* Black-box entry subcircuit for sky130_fd_sc_hd__nor2_8 abstract view
.subckt sky130_fd_sc_hd__nor2_8 A B VGND VNB VPB VPWR Y
.ends

* Black-box entry subcircuit for sky130_fd_sc_hd__a22o_2 abstract view
.subckt sky130_fd_sc_hd__a22o_2 A1 A2 B1 B2 VGND VNB VPB VPWR X
.ends

* Black-box entry subcircuit for sky130_fd_sc_hd__clkbuf_16 abstract view
.subckt sky130_fd_sc_hd__clkbuf_16 A VGND VNB VPB VPWR X
.ends

* Black-box entry subcircuit for sky130_fd_sc_hd__inv_2 abstract view
.subckt sky130_fd_sc_hd__inv_2 A VGND VNB VPB VPWR Y
.ends

* Black-box entry subcircuit for sky130_fd_sc_hd__or4_4 abstract view
.subckt sky130_fd_sc_hd__or4_4 A B C D VGND VNB VPB VPWR X
.ends

* Black-box entry subcircuit for sky130_fd_sc_hd__a31o_2 abstract view
.subckt sky130_fd_sc_hd__a31o_2 A1 A2 A3 B1 VGND VNB VPB VPWR X
.ends

* Black-box entry subcircuit for sky130_fd_sc_hd__clkinv_4 abstract view
.subckt sky130_fd_sc_hd__clkinv_4 A VGND VNB VPB VPWR Y
.ends

* Black-box entry subcircuit for sky130_fd_sc_hd__or2_4 abstract view
.subckt sky130_fd_sc_hd__or2_4 A B VGND VNB VPB VPWR X
.ends

* Black-box entry subcircuit for sky130_fd_sc_hd__o311a_4 abstract view
.subckt sky130_fd_sc_hd__o311a_4 A1 A2 A3 B1 C1 VGND VNB VPB VPWR X
.ends

* Black-box entry subcircuit for sky130_fd_sc_hd__buf_8 abstract view
.subckt sky130_fd_sc_hd__buf_8 A VGND VNB VPB VPWR X
.ends

* Black-box entry subcircuit for sky130_fd_sc_hd__nor2_4 abstract view
.subckt sky130_fd_sc_hd__nor2_4 A B VGND VNB VPB VPWR Y
.ends

* Black-box entry subcircuit for sky130_fd_sc_hd__buf_2 abstract view
.subckt sky130_fd_sc_hd__buf_2 A VGND VNB VPB VPWR X
.ends

* Black-box entry subcircuit for sky130_fd_sc_hd__buf_4 abstract view
.subckt sky130_fd_sc_hd__buf_4 A VGND VNB VPB VPWR X
.ends

* Black-box entry subcircuit for sky130_fd_sc_hd__a22o_1 abstract view
.subckt sky130_fd_sc_hd__a22o_1 A1 A2 B1 B2 VGND VNB VPB VPWR X
.ends

* Black-box entry subcircuit for sky130_fd_sc_hd__clkbuf_4 abstract view
.subckt sky130_fd_sc_hd__clkbuf_4 A VGND VNB VPB VPWR X
.ends

* Black-box entry subcircuit for sky130_fd_sc_hd__o311a_1 abstract view
.subckt sky130_fd_sc_hd__o311a_1 A1 A2 A3 B1 C1 VGND VNB VPB VPWR X
.ends

* Black-box entry subcircuit for sky130_fd_sc_hd__a22o_4 abstract view
.subckt sky130_fd_sc_hd__a22o_4 A1 A2 B1 B2 VGND VNB VPB VPWR X
.ends

* Black-box entry subcircuit for sky130_fd_sc_hd__clkbuf_8 abstract view
.subckt sky130_fd_sc_hd__clkbuf_8 A VGND VNB VPB VPWR X
.ends

* Black-box entry subcircuit for sky130_fd_sc_hd__clkbuf_1 abstract view
.subckt sky130_fd_sc_hd__clkbuf_1 A VGND VNB VPB VPWR X
.ends

* Black-box entry subcircuit for sky130_fd_sc_hd__nand2_8 abstract view
.subckt sky130_fd_sc_hd__nand2_8 A B VGND VNB VPB VPWR Y
.ends

* Black-box entry subcircuit for sky130_fd_sc_hd__dfrtp_2 abstract view
.subckt sky130_fd_sc_hd__dfrtp_2 CLK D RESET_B VGND VNB VPB VPWR Q
.ends

* Black-box entry subcircuit for sky130_fd_sc_hd__inv_4 abstract view
.subckt sky130_fd_sc_hd__inv_4 A VGND VNB VPB VPWR Y
.ends

* Black-box entry subcircuit for sky130_fd_sc_hd__dlygate4sd3_1 abstract view
.subckt sky130_fd_sc_hd__dlygate4sd3_1 A VGND VNB VPB VPWR X
.ends

* Black-box entry subcircuit for sky130_fd_sc_hd__mux2_8 abstract view
.subckt sky130_fd_sc_hd__mux2_8 A0 A1 S VGND VNB VPB VPWR X
.ends

* Black-box entry subcircuit for sky130_fd_sc_hd__or2_2 abstract view
.subckt sky130_fd_sc_hd__or2_2 A B VGND VNB VPB VPWR X
.ends

* Black-box entry subcircuit for sky130_fd_sc_hd__o31a_1 abstract view
.subckt sky130_fd_sc_hd__o31a_1 A1 A2 A3 B1 VGND VNB VPB VPWR X
.ends

* Black-box entry subcircuit for ACMP abstract view
.subckt ACMP INN INP Q VDD VSS clk vccd2 vssd2
.ends

* Black-box entry subcircuit for sky130_fd_sc_hd__o21ai_4 abstract view
.subckt sky130_fd_sc_hd__o21ai_4 A1 A2 B1 VGND VNB VPB VPWR Y
.ends

* Black-box entry subcircuit for sky130_fd_sc_hd__buf_1 abstract view
.subckt sky130_fd_sc_hd__buf_1 A VGND VNB VPB VPWR X
.ends

* Black-box entry subcircuit for sky130_fd_sc_hd__clkinv_8 abstract view
.subckt sky130_fd_sc_hd__clkinv_8 A VGND VNB VPB VPWR Y
.ends

* Black-box entry subcircuit for sky130_fd_sc_hd__dfxtp_2 abstract view
.subckt sky130_fd_sc_hd__dfxtp_2 CLK D VGND VNB VPB VPWR Q
.ends

.subckt ACMP_SAR INN INP Q clk cmp cmp_sel data[0] data[1] data[2] data[3] data[4]
+ data[5] data[6] data[7] done rstn start vccd1 vssd1 vccd2 vssd2 vccd1_uq0 vccd1_uq1
+ vssd1_uq0 vssd1_uq1 vccd2_uq0 vccd2_uq1 vssd2_uq0 vssd2_uq1
XFILLER_79_391 vssd1_uq1 vssd1_uq1 vccd1_uq1 vccd1_uq1 sky130_fd_sc_hd__decap_8
XFILLER_39_277 vssd1_uq1 vssd1_uq1 vccd1_uq1 vccd1_uq1 sky130_fd_sc_hd__decap_8
XFILLER_94_372 vssd1_uq1 vssd1_uq1 vccd1_uq1 vccd1_uq1 sky130_fd_sc_hd__decap_12
XFILLER_82_534 vssd1_uq1 vssd1_uq1 vccd1_uq1 vccd1_uq1 sky130_fd_sc_hd__decap_8
XFILLER_54_225 vssd1_uq1 vssd1_uq1 vccd1_uq1 vccd1_uq1 sky130_fd_sc_hd__decap_12
XFILLER_82_567 vssd1_uq1 vssd1_uq1 vccd1_uq1 vccd1_uq1 sky130_fd_sc_hd__decap_12
XFILLER_54_258 vssd1_uq1 vssd1_uq1 vccd1_uq1 vccd1_uq1 sky130_fd_sc_hd__decap_12
XFILLER_23_601 vssd1_uq1 vssd1_uq1 vccd1_uq1 vccd1_uq1 sky130_fd_sc_hd__decap_12
XFILLER_22_111 vssd1_uq1 vssd1_uq1 vccd1_uq1 vccd1_uq1 sky130_fd_sc_hd__decap_12
XPHY_1707 vssd1_uq1 vccd1_uq1 sky130_fd_sc_hd__tapvpwrvgnd_1
XFILLER_23_634 vssd1_uq1 vssd1_uq1 vccd1_uq1 vccd1_uq1 sky130_fd_sc_hd__decap_12
XFILLER_50_420 vssd1_uq1 vssd1_uq1 vccd1_uq1 vccd1_uq1 sky130_fd_sc_hd__decap_8
XFILLER_22_144 vssd1_uq1 vssd1_uq1 vccd1_uq1 vccd1_uq1 sky130_fd_sc_hd__decap_12
XPHY_1718 vssd1_uq1 vccd1_uq1 sky130_fd_sc_hd__tapvpwrvgnd_1
XFILLER_50_453 vssd1_uq1 vssd1_uq1 vccd1_uq1 vccd1_uq1 sky130_fd_sc_hd__decap_12
XFILLER_22_188 vssd1_uq1 vssd1_uq1 vccd1_uq1 vccd1_uq1 sky130_fd_sc_hd__decap_3
XFILLER_50_486 vssd1_uq1 vssd1_uq1 vccd1_uq1 vccd1_uq1 sky130_fd_sc_hd__decap_12
XFILLER_108_249 vssd1_uq1 vssd1_uq1 vccd1_uq1 vccd1_uq1 sky130_fd_sc_hd__decap_8
XFILLER_116_282 vssd1_uq1 vssd1_uq1 vccd1_uq1 vccd1_uq1 sky130_fd_sc_hd__decap_12
XFILLER_2_516 vssd1_uq1 vssd1_uq1 vccd1_uq1 vccd1_uq1 sky130_fd_sc_hd__decap_12
XFILLER_2_549 vssd1_uq1 vssd1_uq1 vccd1_uq1 vccd1_uq1 sky130_fd_sc_hd__decap_12
XFILLER_77_15 vssd1_uq1 vssd1_uq1 vccd1_uq1 vccd1_uq1 sky130_fd_sc_hd__decap_12
XFILLER_104_488 vssd1_uq1 vssd1_uq1 vccd1_uq1 vccd1_uq1 sky130_fd_sc_hd__decap_4
XFILLER_104_477 vssd1_uq1 vssd1_uq1 vccd1_uq1 vccd1_uq1 sky130_fd_sc_hd__decap_8
XFILLER_46_726 vssd1_uq1 vssd1_uq1 vccd1_uq1 vccd1_uq1 sky130_fd_sc_hd__decap_6
XFILLER_93_58 vssd1_uq1 vssd1_uq1 vccd1_uq1 vccd1_uq1 sky130_fd_sc_hd__decap_12
XFILLER_26_30 vssd1_uq1 vssd1_uq1 vccd1_uq1 vccd1_uq1 sky130_fd_sc_hd__decap_12
XFILLER_13_111 vssd1_uq1 vssd1_uq1 vccd1_uq1 vccd1_uq1 sky130_fd_sc_hd__decap_3
XFILLER_53_280 vssd1_uq1 vssd1_uq1 vccd1_uq1 vccd1_uq1 sky130_fd_sc_hd__decap_4
XFILLER_9_115 vssd1_uq1 vssd1_uq1 vccd1_uq1 vccd1_uq1 sky130_fd_sc_hd__decap_12
XFILLER_115_709 vssd1_uq1 vssd1_uq1 vccd1_uq1 vccd1_uq1 sky130_fd_sc_hd__decap_12
XFILLER_5_398 vssd1_uq1 vssd1_uq1 vccd1_uq1 vccd1_uq1 sky130_fd_sc_hd__decap_12
XFILLER_68_306 vssd1_uq1 vssd1_uq1 vccd1_uq1 vccd1_uq1 sky130_fd_sc_hd__decap_8
XFILLER_96_648 vssd1_uq1 vssd1_uq1 vccd1_uq1 vccd1_uq1 sky130_fd_sc_hd__decap_8
XFILLER_68_339 vssd1_uq1 vssd1_uq1 vccd1_uq1 vccd1_uq1 sky130_fd_sc_hd__decap_12
XFILLER_67_70 vssd1_uq1 vssd1_uq1 vccd1_uq1 vccd1_uq1 sky130_fd_sc_hd__decap_12
XFILLER_76_372 vssd1_uq1 vssd1_uq1 vccd1_uq1 vccd1_uq1 sky130_fd_sc_hd__decap_12
XFILLER_36_225 vssd1_uq1 vssd1_uq1 vccd1_uq1 vccd1_uq1 sky130_fd_sc_hd__decap_12
XFILLER_64_534 vssd1_uq1 vssd1_uq1 vccd1_uq1 vccd1_uq1 sky130_fd_sc_hd__decap_8
XFILLER_36_258 vssd1_uq1 vssd1_uq1 vccd1_uq1 vccd1_uq1 sky130_fd_sc_hd__decap_12
XFILLER_64_567 vssd1_uq1 vssd1_uq1 vccd1_uq1 vccd1_uq1 sky130_fd_sc_hd__decap_12
XFILLER_32_420 vssd1_uq1 vssd1_uq1 vccd1_uq1 vccd1_uq1 sky130_fd_sc_hd__decap_8
XFILLER_32_453 vssd1_uq1 vssd1_uq1 vccd1_uq1 vccd1_uq1 sky130_fd_sc_hd__decap_12
XFILLER_32_486 vssd1_uq1 vssd1_uq1 vccd1_uq1 vccd1_uq1 sky130_fd_sc_hd__decap_12
XFILLER_106_709 vssd1_uq1 vssd1_uq1 vccd1_uq1 vccd1_uq1 sky130_fd_sc_hd__decap_4
XFILLER_105_208 vssd1_uq1 vssd1_uq1 vccd1_uq1 vccd1_uq1 sky130_fd_sc_hd__decap_12
XFILLER_113_241 vssd1_uq1 vssd1_uq1 vccd1_uq1 vccd1_uq1 sky130_fd_sc_hd__decap_12
XFILLER_101_436 vssd1_uq1 vssd1_uq1 vccd1_uq1 vccd1_uq1 sky130_fd_sc_hd__decap_12
XFILLER_101_469 vssd1_uq1 vssd1_uq1 vccd1_uq1 vccd1_uq1 sky130_fd_sc_hd__decap_12
XFILLER_86_169 vssd1_uq1 vssd1_uq1 vccd1_uq1 vccd1_uq1 sky130_fd_sc_hd__decap_12
XFILLER_94_180 vssd1_uq1 vssd1_uq1 vccd1_uq1 vccd1_uq1 sky130_fd_sc_hd__decap_12
XFILLER_28_726 vssd1_uq1 vssd1_uq1 vccd1_uq1 vccd1_uq1 sky130_fd_sc_hd__decap_6
XFILLER_63_39 vssd1_uq1 vssd1_uq1 vccd1_uq1 vccd1_uq1 sky130_fd_sc_hd__decap_12
XFILLER_23_420 vssd1_uq1 vssd1_uq1 vccd1_uq1 vccd1_uq1 sky130_fd_sc_hd__decap_12
XPHY_927 vssd1_uq1 vccd1_uq1 sky130_fd_sc_hd__tapvpwrvgnd_1
XPHY_905 vssd1_uq1 vccd1_uq1 sky130_fd_sc_hd__tapvpwrvgnd_1
XPHY_916 vssd1_uq1 vccd1_uq1 sky130_fd_sc_hd__tapvpwrvgnd_1
XPHY_1504 vssd1_uq1 vccd1_uq1 sky130_fd_sc_hd__tapvpwrvgnd_1
XPHY_1515 vssd1_uq1 vccd1_uq1 sky130_fd_sc_hd__tapvpwrvgnd_1
XFILLER_23_475 vssd1_uq1 vssd1_uq1 vccd1_uq1 vccd1_uq1 sky130_fd_sc_hd__decap_12
XPHY_949 vssd1_uq1 vccd1_uq1 sky130_fd_sc_hd__tapvpwrvgnd_1
XPHY_938 vssd1_uq1 vccd1_uq1 sky130_fd_sc_hd__tapvpwrvgnd_1
XPHY_1526 vssd1_uq1 vccd1_uq1 sky130_fd_sc_hd__tapvpwrvgnd_1
XPHY_1537 vssd1_uq1 vccd1_uq1 sky130_fd_sc_hd__tapvpwrvgnd_1
XPHY_1548 vssd1_uq1 vccd1_uq1 sky130_fd_sc_hd__tapvpwrvgnd_1
XFILLER_50_294 vssd1_uq1 vssd1_uq1 vccd1_uq1 vccd1_uq1 sky130_fd_sc_hd__decap_12
XFILLER_109_514 vssd1_uq1 vssd1_uq1 vccd1_uq1 vccd1_uq1 sky130_fd_sc_hd__decap_12
XPHY_1559 vssd1_uq1 vccd1_uq1 sky130_fd_sc_hd__tapvpwrvgnd_1
XFILLER_12_87 vssd1_uq1 vssd1_uq1 vccd1_uq1 vccd1_uq1 sky130_fd_sc_hd__decap_12
XFILLER_78_648 vssd1_uq1 vssd1_uq1 vccd1_uq1 vccd1_uq1 sky130_fd_sc_hd__decap_8
XFILLER_93_607 vssd1_uq1 vssd1_uq1 vccd1_uq1 vccd1_uq1 sky130_fd_sc_hd__decap_12
XFILLER_19_715 vssd1_uq1 vssd1_uq1 vccd1_uq1 vccd1_uq1 sky130_fd_sc_hd__decap_12
XFILLER_86_681 vssd1_uq1 vssd1_uq1 vccd1_uq1 vccd1_uq1 sky130_fd_sc_hd__decap_12
XFILLER_37_51 vssd1_uq1 vssd1_uq1 vccd1_uq1 vccd1_uq1 sky130_fd_sc_hd__decap_6
XFILLER_46_534 vssd1_uq1 vssd1_uq1 vccd1_uq1 vccd1_uq1 sky130_fd_sc_hd__decap_8
XFILLER_58_372 vssd1_uq1 vssd1_uq1 vccd1_uq1 vccd1_uq1 sky130_fd_sc_hd__decap_12
XFILLER_37_84 vssd1_uq1 vssd1_uq1 vccd1_uq1 vccd1_uq1 sky130_fd_sc_hd__decap_4
XFILLER_46_567 vssd1_uq1 vssd1_uq1 vccd1_uq1 vccd1_uq1 sky130_fd_sc_hd__decap_12
XFILLER_61_526 vssd1_uq1 vssd1_uq1 vccd1_uq1 vccd1_uq1 sky130_fd_sc_hd__decap_12
XFILLER_14_420 vssd1_uq1 vssd1_uq1 vccd1_uq1 vccd1_uq1 sky130_fd_sc_hd__fill_2
XFILLER_53_94 vssd1_uq1 vssd1_uq1 vccd1_uq1 vccd1_uq1 sky130_fd_sc_hd__decap_12
XFILLER_6_663 vssd1_uq1 vssd1_uq1 vccd1_uq1 vccd1_uq1 sky130_fd_sc_hd__decap_12
XFILLER_5_151 vssd1_uq1 vssd1_uq1 vccd1_uq1 vccd1_uq1 sky130_fd_sc_hd__decap_12
XFILLER_108_591 vssd1_uq1 vssd1_uq1 vccd1_uq1 vccd1_uq1 sky130_fd_sc_hd__decap_8
XFILLER_5_184 vssd1_uq1 vssd1_uq1 vccd1_uq1 vccd1_uq1 sky130_fd_sc_hd__decap_6
XFILLER_83_106 vssd1_uq1 vssd1_uq1 vccd1_uq1 vccd1_uq1 sky130_fd_sc_hd__decap_8
XFILLER_83_139 vssd1_uq1 vssd1_uq1 vccd1_uq1 vccd1_uq1 sky130_fd_sc_hd__decap_12
XFILLER_76_180 vssd1_uq1 vssd1_uq1 vccd1_uq1 vccd1_uq1 sky130_fd_sc_hd__decap_12
XFILLER_91_172 vssd1_uq1 vssd1_uq1 vccd1_uq1 vccd1_uq1 sky130_fd_sc_hd__decap_12
XFILLER_24_228 vssd1_uq1 vssd1_uq1 vccd1_uq1 vccd1_uq1 sky130_fd_sc_hd__decap_4
XFILLER_64_397 vssd1_uq1 vssd1_uq1 vccd1_uq1 vccd1_uq1 sky130_fd_sc_hd__decap_12
XFILLER_20_423 vssd1_uq1 vssd1_uq1 vccd1_uq1 vccd1_uq1 sky130_fd_sc_hd__decap_12
XFILLER_32_294 vssd1_uq1 vssd1_uq1 vccd1_uq1 vccd1_uq1 sky130_fd_sc_hd__decap_12
XFILLER_87_412 vssd1_uq1 vssd1_uq1 vccd1_uq1 vccd1_uq1 sky130_fd_sc_hd__decap_12
XFILLER_75_607 vssd1_uq1 vssd1_uq1 vccd1_uq1 vccd1_uq1 sky130_fd_sc_hd__decap_12
XFILLER_101_277 vssd1_uq1 vssd1_uq1 vccd1_uq1 vccd1_uq1 sky130_fd_sc_hd__decap_8
XFILLER_68_681 vssd1_uq1 vssd1_uq1 vccd1_uq1 vccd1_uq1 sky130_fd_sc_hd__decap_12
XFILLER_114_78 vssd1_uq1 vssd1_uq1 vccd1_uq1 vccd1_uq1 sky130_fd_sc_hd__decap_8
XFILLER_83_640 vssd1_uq1 vssd1_uq1 vccd1_uq1 vccd1_uq1 sky130_fd_sc_hd__decap_12
XFILLER_28_534 vssd1_uq1 vssd1_uq1 vccd1_uq1 vccd1_uq1 sky130_fd_sc_hd__decap_8
XFILLER_28_567 vssd1_uq1 vssd1_uq1 vccd1_uq1 vccd1_uq1 sky130_fd_sc_hd__decap_12
XFILLER_74_27 vssd1_uq1 vssd1_uq1 vccd1_uq1 vccd1_uq1 sky130_fd_sc_hd__fill_2
XFILLER_43_526 vssd1_uq1 vssd1_uq1 vccd1_uq1 vccd1_uq1 sky130_fd_sc_hd__decap_12
XPHY_702 vssd1_uq1 vccd1_uq1 sky130_fd_sc_hd__tapvpwrvgnd_1
XFILLER_90_15 vssd1_uq1 vssd1_uq1 vccd1_uq1 vccd1_uq1 sky130_fd_sc_hd__decap_12
XPHY_735 vssd1_uq1 vccd1_uq1 sky130_fd_sc_hd__tapvpwrvgnd_1
XPHY_724 vssd1_uq1 vccd1_uq1 sky130_fd_sc_hd__tapvpwrvgnd_1
XPHY_713 vssd1_uq1 vccd1_uq1 sky130_fd_sc_hd__tapvpwrvgnd_1
XPHY_1301 vssd1_uq1 vccd1_uq1 sky130_fd_sc_hd__tapvpwrvgnd_1
XPHY_1312 vssd1_uq1 vccd1_uq1 sky130_fd_sc_hd__tapvpwrvgnd_1
XPHY_1323 vssd1_uq1 vccd1_uq1 sky130_fd_sc_hd__tapvpwrvgnd_1
XPHY_757 vssd1_uq1 vccd1_uq1 sky130_fd_sc_hd__tapvpwrvgnd_1
XPHY_746 vssd1_uq1 vccd1_uq1 sky130_fd_sc_hd__tapvpwrvgnd_1
XPHY_768 vssd1_uq1 vccd1_uq1 sky130_fd_sc_hd__tapvpwrvgnd_1
XPHY_1356 vssd1_uq1 vccd1_uq1 sky130_fd_sc_hd__tapvpwrvgnd_1
XPHY_1334 vssd1_uq1 vccd1_uq1 sky130_fd_sc_hd__tapvpwrvgnd_1
XPHY_1345 vssd1_uq1 vccd1_uq1 sky130_fd_sc_hd__tapvpwrvgnd_1
XPHY_779 vssd1_uq1 vccd1_uq1 sky130_fd_sc_hd__tapvpwrvgnd_1
XFILLER_109_322 vssd1_uq1 vssd1_uq1 vccd1_uq1 vccd1_uq1 sky130_fd_sc_hd__decap_12
XPHY_1378 vssd1_uq1 vccd1_uq1 sky130_fd_sc_hd__tapvpwrvgnd_1
XPHY_1367 vssd1_uq1 vccd1_uq1 sky130_fd_sc_hd__tapvpwrvgnd_1
XPHY_1389 vssd1_uq1 vccd1_uq1 sky130_fd_sc_hd__tapvpwrvgnd_1
XFILLER_109_355 vssd1_uq1 vssd1_uq1 vccd1_uq1 vccd1_uq1 sky130_fd_sc_hd__decap_12
X_062_ _050_/Y _099_/A _055_/X _058_/X _061_/X vssd1_uq1 vssd1_uq1 vccd1_uq1 vccd1_uq1
+ _119_/D sky130_fd_sc_hd__o311a_2
XFILLER_3_622 vssd1_uq1 vssd1_uq1 vccd1_uq1 vccd1_uq1 sky130_fd_sc_hd__decap_12
XFILLER_105_550 vssd1_uq1 vssd1_uq1 vccd1_uq1 vccd1_uq1 sky130_fd_sc_hd__decap_12
XFILLER_105_583 vssd1_uq1 vssd1_uq1 vccd1_uq1 vccd1_uq1 sky130_fd_sc_hd__decap_6
XFILLER_2_176 vssd1_uq1 vssd1_uq1 vccd1_uq1 vccd1_uq1 sky130_fd_sc_hd__decap_4
XFILLER_2_187 vssd1_uq1 vssd1_uq1 vccd1_uq1 vccd1_uq1 sky130_fd_sc_hd__decap_4
XFILLER_65_106 vssd1_uq1 vssd1_uq1 vccd1_uq1 vccd1_uq1 sky130_fd_sc_hd__decap_8
XFILLER_58_180 vssd1_uq1 vssd1_uq1 vccd1_uq1 vccd1_uq1 sky130_fd_sc_hd__decap_12
XFILLER_65_139 vssd1_uq1 vssd1_uq1 vccd1_uq1 vccd1_uq1 sky130_fd_sc_hd__decap_12
XFILLER_19_589 vssd1_uq1 vssd1_uq1 vccd1_uq1 vccd1_uq1 sky130_fd_sc_hd__decap_12
XFILLER_61_334 vssd1_uq1 vssd1_uq1 vccd1_uq1 vccd1_uq1 sky130_fd_sc_hd__decap_8
XFILLER_73_172 vssd1_uq1 vssd1_uq1 vccd1_uq1 vccd1_uq1 sky130_fd_sc_hd__decap_4
XFILLER_61_367 vssd1_uq1 vssd1_uq1 vccd1_uq1 vccd1_uq1 sky130_fd_sc_hd__decap_12
XFILLER_30_732 vssd1_uq1 vssd1_uq1 vccd1_uq1 vccd1_uq1 sky130_fd_sc_hd__fill_1
XFILLER_6_471 vssd1_uq1 vssd1_uq1 vccd1_uq1 vccd1_uq1 sky130_fd_sc_hd__decap_8
XFILLER_50_3 vssd1_uq1 vssd1_uq1 vccd1_uq1 vccd1_uq1 sky130_fd_sc_hd__decap_12
XFILLER_97_721 vssd1_uq1 vssd1_uq1 vccd1_uq1 vccd1_uq1 sky130_fd_sc_hd__decap_12
XFILLER_69_412 vssd1_uq1 vssd1_uq1 vccd1_uq1 vccd1_uq1 sky130_fd_sc_hd__decap_12
XFILLER_57_607 vssd1_uq1 vssd1_uq1 vccd1_uq1 vccd1_uq1 sky130_fd_sc_hd__decap_12
XFILLER_65_640 vssd1_uq1 vssd1_uq1 vccd1_uq1 vccd1_uq1 sky130_fd_sc_hd__decap_12
XFILLER_119_697 vssd1_uq1 vssd1_uq1 vccd1_uq1 vccd1_uq1 sky130_fd_sc_hd__decap_4
XFILLER_69_27 vssd1_uq1 vssd1_uq1 vccd1_uq1 vccd1_uq1 sky130_fd_sc_hd__decap_12
XFILLER_88_732 vssd1_uq1 vssd1_uq1 vccd1_uq1 vccd1_uq1 sky130_fd_sc_hd__fill_1
XFILLER_85_15 vssd1_uq1 vssd1_uq1 vccd1_uq1 vccd1_uq1 sky130_fd_sc_hd__decap_12
XFILLER_87_253 vssd1_uq1 vssd1_uq1 vccd1_uq1 vccd1_uq1 sky130_fd_sc_hd__decap_12
XFILLER_102_575 vssd1_uq1 vssd1_uq1 vccd1_uq1 vccd1_uq1 sky130_fd_sc_hd__decap_12
XFILLER_87_286 vssd1_uq1 vssd1_uq1 vccd1_uq1 vccd1_uq1 sky130_fd_sc_hd__decap_12
XFILLER_47_106 vssd1_uq1 vssd1_uq1 vccd1_uq1 vccd1_uq1 sky130_fd_sc_hd__decap_8
XFILLER_75_448 vssd1_uq1 vssd1_uq1 vccd1_uq1 vccd1_uq1 sky130_fd_sc_hd__decap_8
XFILLER_18_42 vssd1_uq1 vssd1_uq1 vccd1_uq1 vccd1_uq1 sky130_fd_sc_hd__decap_12
XFILLER_47_139 vssd1_uq1 vssd1_uq1 vccd1_uq1 vccd1_uq1 sky130_fd_sc_hd__decap_12
XFILLER_90_429 vssd1_uq1 vssd1_uq1 vccd1_uq1 vccd1_uq1 sky130_fd_sc_hd__decap_12
XFILLER_16_504 vssd1_uq1 vssd1_uq1 vccd1_uq1 vccd1_uq1 sky130_fd_sc_hd__decap_12
XFILLER_83_481 vssd1_uq1 vssd1_uq1 vccd1_uq1 vccd1_uq1 sky130_fd_sc_hd__decap_12
XFILLER_16_537 vssd1_uq1 vssd1_uq1 vccd1_uq1 vccd1_uq1 sky130_fd_sc_hd__decap_12
XFILLER_43_334 vssd1_uq1 vssd1_uq1 vccd1_uq1 vccd1_uq1 sky130_fd_sc_hd__decap_8
XFILLER_55_172 vssd1_uq1 vssd1_uq1 vccd1_uq1 vccd1_uq1 sky130_fd_sc_hd__decap_12
XFILLER_34_30 vssd1_uq1 vssd1_uq1 vccd1_uq1 vccd1_uq1 sky130_fd_sc_hd__decap_12
XFILLER_16_559 vssd1_uq1 vssd1_uq1 vccd1_uq1 vccd1_uq1 sky130_fd_sc_hd__decap_4
XPHY_510 vssd1_uq1 vccd1_uq1 sky130_fd_sc_hd__tapvpwrvgnd_1
XFILLER_43_367 vssd1_uq1 vssd1_uq1 vccd1_uq1 vccd1_uq1 sky130_fd_sc_hd__decap_12
XFILLER_71_676 vssd1_uq1 vssd1_uq1 vccd1_uq1 vccd1_uq1 sky130_fd_sc_hd__decap_8
XFILLER_24_581 vssd1_uq1 vssd1_uq1 vccd1_uq1 vccd1_uq1 sky130_fd_sc_hd__decap_12
XPHY_532 vssd1_uq1 vccd1_uq1 sky130_fd_sc_hd__tapvpwrvgnd_1
XPHY_521 vssd1_uq1 vccd1_uq1 sky130_fd_sc_hd__tapvpwrvgnd_1
XPHY_543 vssd1_uq1 vccd1_uq1 sky130_fd_sc_hd__tapvpwrvgnd_1
XPHY_1131 vssd1_uq1 vccd1_uq1 sky130_fd_sc_hd__tapvpwrvgnd_1
XFILLER_12_732 vssd1_uq1 vssd1_uq1 vccd1_uq1 vccd1_uq1 sky130_fd_sc_hd__fill_1
XPHY_587 vssd1_uq1 vccd1_uq1 sky130_fd_sc_hd__tapvpwrvgnd_1
XPHY_565 vssd1_uq1 vccd1_uq1 sky130_fd_sc_hd__tapvpwrvgnd_1
XPHY_576 vssd1_uq1 vccd1_uq1 sky130_fd_sc_hd__tapvpwrvgnd_1
XPHY_554 vssd1_uq1 vccd1_uq1 sky130_fd_sc_hd__tapvpwrvgnd_1
XPHY_1120 vssd1_uq1 vccd1_uq1 sky130_fd_sc_hd__tapvpwrvgnd_1
XPHY_1153 vssd1_uq1 vccd1_uq1 sky130_fd_sc_hd__tapvpwrvgnd_1
XPHY_1142 vssd1_uq1 vccd1_uq1 sky130_fd_sc_hd__tapvpwrvgnd_1
XPHY_1164 vssd1_uq1 vccd1_uq1 sky130_fd_sc_hd__tapvpwrvgnd_1
XPHY_1175 vssd1_uq1 vccd1_uq1 sky130_fd_sc_hd__tapvpwrvgnd_1
XPHY_598 vssd1_uq1 vccd1_uq1 sky130_fd_sc_hd__tapvpwrvgnd_1
X_114_ _118_/CLK _114_/D vssd1_uq1 vssd1_uq1 vccd1_uq1 vccd1_uq1 _114_/Q sky130_fd_sc_hd__dfxtp_4
XPHY_1197 vssd1_uq1 vccd1_uq1 sky130_fd_sc_hd__tapvpwrvgnd_1
XPHY_1186 vssd1_uq1 vccd1_uq1 sky130_fd_sc_hd__tapvpwrvgnd_1
XFILLER_109_163 vssd1_uq1 vssd1_uq1 vccd1_uq1 vccd1_uq1 sky130_fd_sc_hd__decap_8
XFILLER_109_196 vssd1_uq1 vssd1_uq1 vccd1_uq1 vccd1_uq1 sky130_fd_sc_hd__decap_12
XFILLER_112_306 vssd1_uq1 vssd1_uq1 vccd1_uq1 vccd1_uq1 sky130_fd_sc_hd__decap_8
XFILLER_3_463 vssd1_uq1 vssd1_uq1 vccd1_uq1 vccd1_uq1 sky130_fd_sc_hd__decap_12
XFILLER_112_339 vssd1_uq1 vssd1_uq1 vccd1_uq1 vccd1_uq1 sky130_fd_sc_hd__decap_12
XFILLER_79_721 vssd1_uq1 vssd1_uq1 vccd1_uq1 vccd1_uq1 sky130_fd_sc_hd__decap_12
XFILLER_105_391 vssd1_uq1 vssd1_uq1 vccd1_uq1 vccd1_uq1 sky130_fd_sc_hd__decap_8
XFILLER_39_607 vssd1_uq1 vssd1_uq1 vccd1_uq1 vccd1_uq1 sky130_fd_sc_hd__decap_12
XFILLER_59_82 vssd1_uq1 vssd1_uq1 vccd1_uq1 vccd1_uq1 sky130_fd_sc_hd__decap_12
XFILLER_38_128 vssd1_uq1 vssd1_uq1 vccd1_uq1 vccd1_uq1 sky130_fd_sc_hd__decap_12
XFILLER_47_640 vssd1_uq1 vssd1_uq1 vccd1_uq1 vccd1_uq1 sky130_fd_sc_hd__decap_12
XFILLER_75_70 vssd1_uq1 vssd1_uq1 vccd1_uq1 vccd1_uq1 sky130_fd_sc_hd__decap_4
XFILLER_98_3 vssd1_uq1 vssd1_uq1 vccd1_uq1 vccd1_uq1 sky130_fd_sc_hd__decap_12
XFILLER_116_612 vssd1_uq1 vssd1_uq1 vccd1_uq1 vccd1_uq1 sky130_fd_sc_hd__decap_12
XFILLER_69_220 vssd1_uq1 vssd1_uq1 vccd1_uq1 vccd1_uq1 sky130_fd_sc_hd__decap_8
XFILLER_97_562 vssd1_uq1 vssd1_uq1 vccd1_uq1 vccd1_uq1 sky130_fd_sc_hd__decap_8
XFILLER_69_253 vssd1_uq1 vssd1_uq1 vccd1_uq1 vccd1_uq1 sky130_fd_sc_hd__decap_12
XFILLER_97_595 vssd1_uq1 vssd1_uq1 vccd1_uq1 vccd1_uq1 sky130_fd_sc_hd__decap_12
XFILLER_29_106 vssd1_uq1 vssd1_uq1 vccd1_uq1 vccd1_uq1 sky130_fd_sc_hd__decap_8
XFILLER_69_286 vssd1_uq1 vssd1_uq1 vccd1_uq1 vccd1_uq1 sky130_fd_sc_hd__decap_12
XFILLER_84_201 vssd1_uq1 vssd1_uq1 vccd1_uq1 vccd1_uq1 sky130_fd_sc_hd__decap_12
XFILLER_29_139 vssd1_uq1 vssd1_uq1 vccd1_uq1 vccd1_uq1 sky130_fd_sc_hd__decap_12
XFILLER_57_448 vssd1_uq1 vssd1_uq1 vccd1_uq1 vccd1_uq1 sky130_fd_sc_hd__decap_8
XFILLER_72_429 vssd1_uq1 vssd1_uq1 vccd1_uq1 vccd1_uq1 sky130_fd_sc_hd__decap_12
XFILLER_37_172 vssd1_uq1 vssd1_uq1 vccd1_uq1 vccd1_uq1 sky130_fd_sc_hd__decap_12
XFILLER_65_481 vssd1_uq1 vssd1_uq1 vccd1_uq1 vccd1_uq1 sky130_fd_sc_hd__decap_12
XANTENNA__080__A1 _094_/B vssd1_uq1 vssd1_uq1 vccd1_uq1 vccd1_uq1 sky130_fd_sc_hd__diode_2
XFILLER_25_367 vssd1_uq1 vssd1_uq1 vccd1_uq1 vccd1_uq1 sky130_fd_sc_hd__decap_12
XFILLER_53_676 vssd1_uq1 vssd1_uq1 vccd1_uq1 vccd1_uq1 sky130_fd_sc_hd__decap_8
XFILLER_40_315 vssd1_uq1 vssd1_uq1 vccd1_uq1 vccd1_uq1 sky130_fd_sc_hd__decap_12
XFILLER_71_39 vssd1_uq1 vssd1_uq1 vccd1_uq1 vccd1_uq1 sky130_fd_sc_hd__decap_12
XFILLER_119_494 vssd1_uq1 vssd1_uq1 vccd1_uq1 vccd1_uq1 sky130_fd_sc_hd__decap_12
XFILLER_106_111 vssd1_uq1 vssd1_uq1 vccd1_uq1 vccd1_uq1 sky130_fd_sc_hd__decap_12
XFILLER_106_144 vssd1_uq1 vssd1_uq1 vccd1_uq1 vccd1_uq1 sky130_fd_sc_hd__decap_12
XFILLER_20_54 vssd1_uq1 vssd1_uq1 vccd1_uq1 vccd1_uq1 sky130_fd_sc_hd__decap_12
XFILLER_20_87 vssd1_uq1 vssd1_uq1 vccd1_uq1 vccd1_uq1 sky130_fd_sc_hd__decap_12
XFILLER_102_372 vssd1_uq1 vssd1_uq1 vccd1_uq1 vccd1_uq1 sky130_fd_sc_hd__decap_12
XFILLER_29_640 vssd1_uq1 vssd1_uq1 vccd1_uq1 vccd1_uq1 sky130_fd_sc_hd__decap_12
XFILLER_90_237 vssd1_uq1 vssd1_uq1 vccd1_uq1 vccd1_uq1 sky130_fd_sc_hd__decap_12
XANTENNA__071__A1 _069_/Y vssd1_uq1 vssd1_uq1 vccd1_uq1 vccd1_uq1 sky130_fd_sc_hd__diode_2
XFILLER_45_51 vssd1_uq1 vssd1_uq1 vccd1_uq1 vccd1_uq1 sky130_fd_sc_hd__decap_6
XPHY_351 vssd1_uq1 vccd1_uq1 sky130_fd_sc_hd__tapvpwrvgnd_1
XPHY_340 vssd1_uq1 vccd1_uq1 sky130_fd_sc_hd__tapvpwrvgnd_1
XPHY_362 vssd1_uq1 vccd1_uq1 sky130_fd_sc_hd__tapvpwrvgnd_1
XPHY_395 vssd1_uq1 vccd1_uq1 sky130_fd_sc_hd__tapvpwrvgnd_1
XPHY_384 vssd1_uq1 vccd1_uq1 sky130_fd_sc_hd__tapvpwrvgnd_1
XPHY_373 vssd1_uq1 vccd1_uq1 sky130_fd_sc_hd__tapvpwrvgnd_1
XFILLER_61_94 vssd1_uq1 vssd1_uq1 vccd1_uq1 vccd1_uq1 sky130_fd_sc_hd__decap_12
XFILLER_6_78 vssd1_uq1 vssd1_uq1 vccd1_uq1 vccd1_uq1 sky130_fd_sc_hd__decap_8
XFILLER_98_315 vssd1_uq1 vssd1_uq1 vccd1_uq1 vccd1_uq1 sky130_fd_sc_hd__decap_12
XFILLER_94_510 vssd1_uq1 vssd1_uq1 vccd1_uq1 vccd1_uq1 sky130_fd_sc_hd__decap_12
XFILLER_79_595 vssd1_uq1 vssd1_uq1 vccd1_uq1 vccd1_uq1 sky130_fd_sc_hd__decap_12
XFILLER_79_562 vssd1_uq1 vssd1_uq1 vccd1_uq1 vccd1_uq1 sky130_fd_sc_hd__decap_8
XFILLER_66_201 vssd1_uq1 vssd1_uq1 vccd1_uq1 vccd1_uq1 sky130_fd_sc_hd__decap_12
XFILLER_94_543 vssd1_uq1 vssd1_uq1 vccd1_uq1 vccd1_uq1 sky130_fd_sc_hd__decap_12
XFILLER_13_3 vssd1_uq1 vssd1_uq1 vccd1_uq1 vccd1_uq1 sky130_fd_sc_hd__decap_12
XFILLER_82_705 vssd1_uq1 vssd1_uq1 vccd1_uq1 vccd1_uq1 sky130_fd_sc_hd__decap_8
XFILLER_19_172 vssd1_uq1 vssd1_uq1 vccd1_uq1 vccd1_uq1 sky130_fd_sc_hd__decap_12
XFILLER_47_481 vssd1_uq1 vssd1_uq1 vccd1_uq1 vccd1_uq1 sky130_fd_sc_hd__decap_12
XFILLER_54_429 vssd1_uq1 vssd1_uq1 vccd1_uq1 vccd1_uq1 sky130_fd_sc_hd__decap_12
XANTENNA__062__A1 _050_/Y vssd1_uq1 vssd1_uq1 vccd1_uq1 vccd1_uq1 sky130_fd_sc_hd__diode_2
XFILLER_35_676 vssd1_uq1 vssd1_uq1 vccd1_uq1 vccd1_uq1 sky130_fd_sc_hd__decap_8
XFILLER_50_624 vssd1_uq1 vssd1_uq1 vccd1_uq1 vccd1_uq1 sky130_fd_sc_hd__decap_12
XFILLER_50_657 vssd1_uq1 vssd1_uq1 vccd1_uq1 vccd1_uq1 sky130_fd_sc_hd__decap_12
XFILLER_116_420 vssd1_uq1 vssd1_uq1 vccd1_uq1 vccd1_uq1 sky130_fd_sc_hd__decap_8
XFILLER_116_453 vssd1_uq1 vssd1_uq1 vccd1_uq1 vccd1_uq1 sky130_fd_sc_hd__decap_12
XFILLER_116_486 vssd1_uq1 vssd1_uq1 vccd1_uq1 vccd1_uq1 sky130_fd_sc_hd__decap_12
XFILLER_112_681 vssd1_uq1 vssd1_uq1 vccd1_uq1 vccd1_uq1 sky130_fd_sc_hd__decap_12
XFILLER_66_17 vssd1_uq1 vssd1_uq1 vccd1_uq1 vccd1_uq1 sky130_fd_sc_hd__decap_12
XFILLER_72_237 vssd1_uq1 vssd1_uq1 vccd1_uq1 vccd1_uq1 sky130_fd_sc_hd__decap_12
XFILLER_82_27 vssd1_uq1 vssd1_uq1 vccd1_uq1 vccd1_uq1 sky130_fd_sc_hd__fill_2
XFILLER_80_270 vssd1_uq1 vssd1_uq1 vccd1_uq1 vccd1_uq1 sky130_fd_sc_hd__decap_12
XFILLER_40_123 vssd1_uq1 vssd1_uq1 vccd1_uq1 vccd1_uq1 sky130_fd_sc_hd__decap_12
XFILLER_40_156 vssd1_uq1 vssd1_uq1 vccd1_uq1 vccd1_uq1 sky130_fd_sc_hd__decap_12
XFILLER_119_291 vssd1_uq1 vssd1_uq1 vccd1_uq1 vccd1_uq1 sky130_fd_sc_hd__decap_12
Xoutput7 COMP/Q vssd1_uq1 vssd1_uq1 vccd1_uq1 vccd1_uq1 Q sky130_fd_sc_hd__clkbuf_2
XFILLER_76_510 vssd1_uq1 vssd1_uq1 vccd1_uq1 vccd1_uq1 sky130_fd_sc_hd__decap_12
XFILLER_48_201 vssd1_uq1 vssd1_uq1 vccd1_uq1 vccd1_uq1 sky130_fd_sc_hd__decap_12
XFILLER_102_180 vssd1_uq1 vssd1_uq1 vccd1_uq1 vccd1_uq1 sky130_fd_sc_hd__decap_12
XFILLER_76_543 vssd1_uq1 vssd1_uq1 vccd1_uq1 vccd1_uq1 sky130_fd_sc_hd__decap_12
XFILLER_64_705 vssd1_uq1 vssd1_uq1 vccd1_uq1 vccd1_uq1 sky130_fd_sc_hd__decap_8
XFILLER_29_481 vssd1_uq1 vssd1_uq1 vccd1_uq1 vccd1_uq1 sky130_fd_sc_hd__decap_12
XFILLER_36_429 vssd1_uq1 vssd1_uq1 vccd1_uq1 vccd1_uq1 sky130_fd_sc_hd__decap_12
XFILLER_32_624 vssd1_uq1 vssd1_uq1 vccd1_uq1 vccd1_uq1 sky130_fd_sc_hd__decap_12
XFILLER_32_657 vssd1_uq1 vssd1_uq1 vccd1_uq1 vccd1_uq1 sky130_fd_sc_hd__decap_12
XPHY_170 vssd1_uq1 vssd1_uq1 vccd1_uq1 vccd1_uq1 sky130_fd_sc_hd__decap_3
XPHY_181 vssd1_uq1 vssd1_uq1 vccd1_uq1 vccd1_uq1 sky130_fd_sc_hd__decap_3
XPHY_192 vssd1_uq1 vssd1_uq1 vccd1_uq1 vccd1_uq1 sky130_fd_sc_hd__decap_3
XFILLER_8_396 vssd1_uq1 vssd1_uq1 vccd1_uq1 vccd1_uq1 sky130_fd_sc_hd__decap_12
XFILLER_113_412 vssd1_uq1 vssd1_uq1 vccd1_uq1 vccd1_uq1 sky130_fd_sc_hd__decap_12
XFILLER_98_156 vssd1_uq1 vssd1_uq1 vccd1_uq1 vccd1_uq1 sky130_fd_sc_hd__decap_12
XFILLER_98_134 vssd1_uq1 vssd1_uq1 vccd1_uq1 vccd1_uq1 sky130_fd_sc_hd__decap_8
XFILLER_101_607 vssd1_uq1 vssd1_uq1 vccd1_uq1 vccd1_uq1 sky130_fd_sc_hd__decap_12
XFILLER_94_351 vssd1_uq1 vssd1_uq1 vccd1_uq1 vccd1_uq1 sky130_fd_sc_hd__decap_12
XFILLER_94_384 vssd1_uq1 vssd1_uq1 vccd1_uq1 vccd1_uq1 sky130_fd_sc_hd__decap_12
XFILLER_82_579 vssd1_uq1 vssd1_uq1 vccd1_uq1 vccd1_uq1 sky130_fd_sc_hd__decap_12
XFILLER_54_237 vssd1_uq1 vssd1_uq1 vccd1_uq1 vccd1_uq1 sky130_fd_sc_hd__decap_12
XFILLER_23_613 vssd1_uq1 vssd1_uq1 vccd1_uq1 vccd1_uq1 sky130_fd_sc_hd__decap_8
XFILLER_22_123 vssd1_uq1 vssd1_uq1 vccd1_uq1 vccd1_uq1 sky130_fd_sc_hd__decap_12
XFILLER_23_646 vssd1_uq1 vssd1_uq1 vccd1_uq1 vccd1_uq1 sky130_fd_sc_hd__decap_12
XFILLER_62_270 vssd1_uq1 vssd1_uq1 vccd1_uq1 vccd1_uq1 sky130_fd_sc_hd__decap_12
XFILLER_22_156 vssd1_uq1 vssd1_uq1 vccd1_uq1 vccd1_uq1 sky130_fd_sc_hd__decap_12
XPHY_1708 vssd1_uq1 vccd1_uq1 sky130_fd_sc_hd__tapvpwrvgnd_1
XPHY_1719 vssd1_uq1 vccd1_uq1 sky130_fd_sc_hd__tapvpwrvgnd_1
XFILLER_23_679 vssd1_uq1 vssd1_uq1 vccd1_uq1 vccd1_uq1 sky130_fd_sc_hd__decap_12
XFILLER_50_465 vssd1_uq1 vssd1_uq1 vccd1_uq1 vccd1_uq1 sky130_fd_sc_hd__decap_12
XFILLER_50_498 vssd1_uq1 vssd1_uq1 vccd1_uq1 vccd1_uq1 sky130_fd_sc_hd__decap_12
XFILLER_2_528 vssd1_uq1 vssd1_uq1 vccd1_uq1 vccd1_uq1 sky130_fd_sc_hd__decap_8
XFILLER_116_294 vssd1_uq1 vssd1_uq1 vccd1_uq1 vccd1_uq1 sky130_fd_sc_hd__decap_12
XFILLER_77_27 vssd1_uq1 vssd1_uq1 vccd1_uq1 vccd1_uq1 sky130_fd_sc_hd__decap_12
XFILLER_58_510 vssd1_uq1 vssd1_uq1 vccd1_uq1 vccd1_uq1 sky130_fd_sc_hd__decap_12
XFILLER_58_543 vssd1_uq1 vssd1_uq1 vccd1_uq1 vccd1_uq1 sky130_fd_sc_hd__decap_12
XFILLER_93_15 vssd1_uq1 vssd1_uq1 vccd1_uq1 vccd1_uq1 sky130_fd_sc_hd__decap_12
XFILLER_46_705 vssd1_uq1 vssd1_uq1 vccd1_uq1 vccd1_uq1 sky130_fd_sc_hd__decap_8
XFILLER_26_42 vssd1_uq1 vssd1_uq1 vccd1_uq1 vccd1_uq1 sky130_fd_sc_hd__decap_12
XFILLER_9_127 vssd1_uq1 vssd1_uq1 vccd1_uq1 vccd1_uq1 sky130_fd_sc_hd__decap_12
XFILLER_42_30 vssd1_uq1 vssd1_uq1 vccd1_uq1 vccd1_uq1 sky130_fd_sc_hd__decap_12
XFILLER_95_115 vssd1_uq1 vssd1_uq1 vccd1_uq1 vccd1_uq1 sky130_fd_sc_hd__decap_12
XFILLER_1_572 vssd1_uq1 vssd1_uq1 vccd1_uq1 vccd1_uq1 sky130_fd_sc_hd__decap_12
XFILLER_67_82 vssd1_uq1 vssd1_uq1 vccd1_uq1 vccd1_uq1 sky130_fd_sc_hd__decap_12
XFILLER_91_310 vssd1_uq1 vssd1_uq1 vccd1_uq1 vccd1_uq1 sky130_fd_sc_hd__decap_12