* NGSPICE file created from adc_wrapper.ext - technology: sky130A

* Black-box entry subcircuit for sky130_fd_sc_hd__decap_8 abstract view
.subckt sky130_fd_sc_hd__decap_8 VGND VNB VPB VPWR
.ends

* Black-box entry subcircuit for sky130_fd_sc_hd__decap_12 abstract view
.subckt sky130_fd_sc_hd__decap_12 VGND VNB VPB VPWR
.ends

* Black-box entry subcircuit for sky130_fd_sc_hd__tapvpwrvgnd_1 abstract view
.subckt sky130_fd_sc_hd__tapvpwrvgnd_1 VGND VPWR
.ends

* Black-box entry subcircuit for sky130_fd_sc_hd__decap_4 abstract view
.subckt sky130_fd_sc_hd__decap_4 VGND VNB VPB VPWR
.ends

* Black-box entry subcircuit for sky130_fd_sc_hd__decap_6 abstract view
.subckt sky130_fd_sc_hd__decap_6 VGND VNB VPB VPWR
.ends

* Black-box entry subcircuit for sky130_fd_sc_hd__diode_2 abstract view
.subckt sky130_fd_sc_hd__diode_2 DIODE VGND VNB VPB VPWR
.ends

* Black-box entry subcircuit for sky130_fd_sc_hd__decap_3 abstract view
.subckt sky130_fd_sc_hd__decap_3 VGND VNB VPB VPWR
.ends

* Black-box entry subcircuit for sky130_fd_sc_hd__conb_1 abstract view
.subckt sky130_fd_sc_hd__conb_1 VGND VNB VPB VPWR HI LO
.ends

* Black-box entry subcircuit for sky130_fd_sc_hd__fill_1 abstract view
.subckt sky130_fd_sc_hd__fill_1 VGND VNB VPB VPWR
.ends

* Black-box entry subcircuit for sky130_fd_sc_hd__clkbuf_2 abstract view
.subckt sky130_fd_sc_hd__clkbuf_2 A VGND VNB VPB VPWR X
.ends

* Black-box entry subcircuit for sky130_fd_sc_hd__dfxtp_4 abstract view
.subckt sky130_fd_sc_hd__dfxtp_4 CLK D VGND VNB VPB VPWR Q
.ends

* Black-box entry subcircuit for sky130_fd_sc_hd__fill_2 abstract view
.subckt sky130_fd_sc_hd__fill_2 VGND VNB VPB VPWR
.ends

* Black-box entry subcircuit for sky130_fd_sc_hd__buf_4 abstract view
.subckt sky130_fd_sc_hd__buf_4 A VGND VNB VPB VPWR X
.ends

* Black-box entry subcircuit for sky130_fd_sc_hd__buf_1 abstract view
.subckt sky130_fd_sc_hd__buf_1 A VGND VNB VPB VPWR X
.ends

* Black-box entry subcircuit for sky130_fd_sc_hd__clkinv_4 abstract view
.subckt sky130_fd_sc_hd__clkinv_4 A VGND VNB VPB VPWR Y
.ends

* Black-box entry subcircuit for sky130_fd_sc_hd__a22o_2 abstract view
.subckt sky130_fd_sc_hd__a22o_2 A1 A2 B1 B2 VGND VNB VPB VPWR X
.ends

* Black-box entry subcircuit for sky130_fd_sc_hd__dfxtp_2 abstract view
.subckt sky130_fd_sc_hd__dfxtp_2 CLK D VGND VNB VPB VPWR Q
.ends

* Black-box entry subcircuit for sky130_fd_sc_hd__nor2_8 abstract view
.subckt sky130_fd_sc_hd__nor2_8 A B VGND VNB VPB VPWR Y
.ends

* Black-box entry subcircuit for sky130_fd_sc_hd__clkbuf_1 abstract view
.subckt sky130_fd_sc_hd__clkbuf_1 A VGND VNB VPB VPWR X
.ends

* Black-box entry subcircuit for sky130_fd_sc_hd__or4_4 abstract view
.subckt sky130_fd_sc_hd__or4_4 A B C D VGND VNB VPB VPWR X
.ends

* Black-box entry subcircuit for sky130_fd_sc_hd__inv_2 abstract view
.subckt sky130_fd_sc_hd__inv_2 A VGND VNB VPB VPWR Y
.ends

* Black-box entry subcircuit for sky130_fd_sc_hd__or2_2 abstract view
.subckt sky130_fd_sc_hd__or2_2 A B VGND VNB VPB VPWR X
.ends

* Black-box entry subcircuit for sky130_fd_sc_hd__o311a_1 abstract view
.subckt sky130_fd_sc_hd__o311a_1 A1 A2 A3 B1 C1 VGND VNB VPB VPWR X
.ends

* Black-box entry subcircuit for sky130_fd_sc_hd__nor2_1 abstract view
.subckt sky130_fd_sc_hd__nor2_1 A B VGND VNB VPB VPWR Y
.ends

* Black-box entry subcircuit for sky130_fd_sc_hd__a31o_2 abstract view
.subckt sky130_fd_sc_hd__a31o_2 A1 A2 A3 B1 VGND VNB VPB VPWR X
.ends

* Black-box entry subcircuit for sky130_fd_sc_hd__o311a_4 abstract view
.subckt sky130_fd_sc_hd__o311a_4 A1 A2 A3 B1 C1 VGND VNB VPB VPWR X
.ends

* Black-box entry subcircuit for sky130_fd_sc_hd__a22o_1 abstract view
.subckt sky130_fd_sc_hd__a22o_1 A1 A2 B1 B2 VGND VNB VPB VPWR X
.ends

* Black-box entry subcircuit for sky130_fd_sc_hd__o311a_2 abstract view
.subckt sky130_fd_sc_hd__o311a_2 A1 A2 A3 B1 C1 VGND VNB VPB VPWR X
.ends

* Black-box entry subcircuit for sky130_fd_sc_hd__buf_8 abstract view
.subckt sky130_fd_sc_hd__buf_8 A VGND VNB VPB VPWR X
.ends

* Black-box entry subcircuit for sky130_fd_sc_hd__buf_6 abstract view
.subckt sky130_fd_sc_hd__buf_6 A VGND VNB VPB VPWR X
.ends

* Black-box entry subcircuit for sky130_fd_sc_hd__a22o_4 abstract view
.subckt sky130_fd_sc_hd__a22o_4 A1 A2 B1 B2 VGND VNB VPB VPWR X
.ends

* Black-box entry subcircuit for sky130_fd_sc_hd__clkinv_8 abstract view
.subckt sky130_fd_sc_hd__clkinv_8 A VGND VNB VPB VPWR Y
.ends

* Black-box entry subcircuit for sky130_fd_sc_hd__dlygate4sd3_1 abstract view
.subckt sky130_fd_sc_hd__dlygate4sd3_1 A VGND VNB VPB VPWR X
.ends

* Black-box entry subcircuit for sky130_fd_sc_hd__dfrtp_2 abstract view
.subckt sky130_fd_sc_hd__dfrtp_2 CLK D RESET_B VGND VNB VPB VPWR Q
.ends

* Black-box entry subcircuit for sky130_fd_sc_hd__nand2_8 abstract view
.subckt sky130_fd_sc_hd__nand2_8 A B VGND VNB VPB VPWR Y
.ends

* Black-box entry subcircuit for sky130_fd_sc_hd__clkbuf_4 abstract view
.subckt sky130_fd_sc_hd__clkbuf_4 A VGND VNB VPB VPWR X
.ends

* Black-box entry subcircuit for sky130_fd_sc_hd__o21ai_4 abstract view
.subckt sky130_fd_sc_hd__o21ai_4 A1 A2 B1 VGND VNB VPB VPWR Y
.ends

* Black-box entry subcircuit for sky130_fd_sc_hd__buf_2 abstract view
.subckt sky130_fd_sc_hd__buf_2 A VGND VNB VPB VPWR X
.ends

* Black-box entry subcircuit for sky130_fd_sc_hd__clkbuf_16 abstract view
.subckt sky130_fd_sc_hd__clkbuf_16 A VGND VNB VPB VPWR X
.ends

* Black-box entry subcircuit for sky130_fd_sc_hd__a31o_1 abstract view
.subckt sky130_fd_sc_hd__a31o_1 A1 A2 A3 B1 VGND VNB VPB VPWR X
.ends

* Black-box entry subcircuit for sky130_fd_sc_hd__clkbuf_8 abstract view
.subckt sky130_fd_sc_hd__clkbuf_8 A VGND VNB VPB VPWR X
.ends

* Black-box entry subcircuit for sky130_fd_sc_hd__a21o_2 abstract view
.subckt sky130_fd_sc_hd__a21o_2 A1 A2 B1 VGND VNB VPB VPWR X
.ends

* Black-box entry subcircuit for sky130_fd_sc_hd__inv_4 abstract view
.subckt sky130_fd_sc_hd__inv_4 A VGND VNB VPB VPWR Y
.ends

* Black-box entry subcircuit for ACMP abstract view
.subckt ACMP INN INP Q VDD VSS clk VPWR VGND
.ends

* Black-box entry subcircuit for sky130_fd_sc_hd__or2_4 abstract view
.subckt sky130_fd_sc_hd__or2_4 A B VGND VNB VPB VPWR X
.ends

* Black-box entry subcircuit for sky130_fd_sc_hd__a31o_4 abstract view
.subckt sky130_fd_sc_hd__a31o_4 A1 A2 A3 B1 VGND VNB VPB VPWR X
.ends

* Black-box entry subcircuit for sky130_fd_sc_hd__or3_4 abstract view
.subckt sky130_fd_sc_hd__or3_4 A B C VGND VNB VPB VPWR X
.ends

.subckt adc_wrapper analog_io[0] analog_io[10] analog_io[11] analog_io[12] analog_io[13]
+ analog_io[14] analog_io[15] analog_io[16] analog_io[17] analog_io[18] analog_io[19]
+ analog_io[1] analog_io[20] analog_io[21] analog_io[22] analog_io[23] analog_io[24]
+ analog_io[25] analog_io[26] analog_io[27] analog_io[28] analog_io[2] analog_io[3]
+ analog_io[4] analog_io[5] analog_io[6] analog_io[7] analog_io[8] analog_io[9] io_in[0]
+ io_in[10] io_in[11] io_in[12] io_in[13] io_in[14] io_in[15] io_in[16] io_in[17]
+ io_in[18] io_in[19] io_in[1] io_in[20] io_in[21] io_in[22] io_in[23] io_in[24] io_in[25]
+ io_in[26] io_in[27] io_in[28] io_in[29] io_in[2] io_in[30] io_in[31] io_in[32] io_in[33]
+ io_in[34] io_in[35] io_in[36] io_in[37] io_in[3] io_in[4] io_in[5] io_in[6] io_in[7]
+ io_in[8] io_in[9] io_oeb[0] io_oeb[10] io_oeb[11] io_oeb[12] io_oeb[13] io_oeb[14]
+ io_oeb[15] io_oeb[16] io_oeb[17] io_oeb[18] io_oeb[19] io_oeb[1] io_oeb[20] io_oeb[21]
+ io_oeb[22] io_oeb[23] io_oeb[24] io_oeb[25] io_oeb[26] io_oeb[27] io_oeb[28] io_oeb[29]
+ io_oeb[2] io_oeb[30] io_oeb[31] io_oeb[32] io_oeb[33] io_oeb[34] io_oeb[35] io_oeb[36]
+ io_oeb[37] io_oeb[3] io_oeb[4] io_oeb[5] io_oeb[6] io_oeb[7] io_oeb[8] io_oeb[9]
+ io_out[0] io_out[10] io_out[11] io_out[12] io_out[13] io_out[14] io_out[15] io_out[16]
+ io_out[17] io_out[18] io_out[19] io_out[1] io_out[20] io_out[21] io_out[22] io_out[23]
+ io_out[24] io_out[25] io_out[26] io_out[27] io_out[28] io_out[29] io_out[2] io_out[30]
+ io_out[31] io_out[32] io_out[33] io_out[34] io_out[35] io_out[36] io_out[37] io_out[3]
+ io_out[4] io_out[5] io_out[6] io_out[7] io_out[8] io_out[9] la_data_in[0] la_data_in[100]
+ la_data_in[101] la_data_in[102] la_data_in[103] la_data_in[104] la_data_in[105]
+ la_data_in[106] la_data_in[107] la_data_in[108] la_data_in[109] la_data_in[10] la_data_in[110]
+ la_data_in[111] la_data_in[112] la_data_in[113] la_data_in[114] la_data_in[115]
+ la_data_in[116] la_data_in[117] la_data_in[118] la_data_in[119] la_data_in[11] la_data_in[120]
+ la_data_in[121] la_data_in[122] la_data_in[123] la_data_in[124] la_data_in[125]
+ la_data_in[126] la_data_in[127] la_data_in[12] la_data_in[13] la_data_in[14] la_data_in[15]
+ la_data_in[16] la_data_in[17] la_data_in[18] la_data_in[19] la_data_in[1] la_data_in[20]
+ la_data_in[21] la_data_in[22] la_data_in[23] la_data_in[24] la_data_in[25] la_data_in[26]
+ la_data_in[27] la_data_in[28] la_data_in[29] la_data_in[2] la_data_in[30] la_data_in[31]
+ la_data_in[32] la_data_in[33] la_data_in[34] la_data_in[35] la_data_in[36] la_data_in[37]
+ la_data_in[38] la_data_in[39] la_data_in[3] la_data_in[40] la_data_in[41] la_data_in[42]
+ la_data_in[43] la_data_in[44] la_data_in[45] la_data_in[46] la_data_in[47] la_data_in[48]
+ la_data_in[49] la_data_in[4] la_data_in[50] la_data_in[51] la_data_in[52] la_data_in[53]
+ la_data_in[54] la_data_in[55] la_data_in[56] la_data_in[57] la_data_in[58] la_data_in[59]
+ la_data_in[5] la_data_in[60] la_data_in[61] la_data_in[62] la_data_in[63] la_data_in[64]
+ la_data_in[65] la_data_in[66] la_data_in[67] la_data_in[68] la_data_in[69] la_data_in[6]
+ la_data_in[70] la_data_in[71] la_data_in[72] la_data_in[73] la_data_in[74] la_data_in[75]
+ la_data_in[76] la_data_in[77] la_data_in[78] la_data_in[79] la_data_in[7] la_data_in[80]
+ la_data_in[81] la_data_in[82] la_data_in[83] la_data_in[84] la_data_in[85] la_data_in[86]
+ la_data_in[87] la_data_in[88] la_data_in[89] la_data_in[8] la_data_in[90] la_data_in[91]
+ la_data_in[92] la_data_in[93] la_data_in[94] la_data_in[95] la_data_in[96] la_data_in[97]
+ la_data_in[98] la_data_in[99] la_data_in[9] la_data_out[0] la_data_out[100] la_data_out[101]
+ la_data_out[102] la_data_out[103] la_data_out[104] la_data_out[105] la_data_out[106]
+ la_data_out[107] la_data_out[108] la_data_out[109] la_data_out[10] la_data_out[110]
+ la_data_out[111] la_data_out[112] la_data_out[113] la_data_out[114] la_data_out[115]
+ la_data_out[116] la_data_out[117] la_data_out[118] la_data_out[119] la_data_out[11]
+ la_data_out[120] la_data_out[121] la_data_out[122] la_data_out[123] la_data_out[124]
+ la_data_out[125] la_data_out[126] la_data_out[127] la_data_out[12] la_data_out[13]
+ la_data_out[14] la_data_out[15] la_data_out[16] la_data_out[17] la_data_out[18]
+ la_data_out[19] la_data_out[1] la_data_out[20] la_data_out[21] la_data_out[22] la_data_out[23]
+ la_data_out[24] la_data_out[25] la_data_out[26] la_data_out[27] la_data_out[28]
+ la_data_out[29] la_data_out[2] la_data_out[30] la_data_out[31] la_data_out[32] la_data_out[33]
+ la_data_out[34] la_data_out[35] la_data_out[36] la_data_out[37] la_data_out[38]
+ la_data_out[39] la_data_out[3] la_data_out[40] la_data_out[41] la_data_out[42] la_data_out[43]
+ la_data_out[44] la_data_out[45] la_data_out[46] la_data_out[47] la_data_out[48]
+ la_data_out[49] la_data_out[4] la_data_out[50] la_data_out[51] la_data_out[52] la_data_out[53]
+ la_data_out[54] la_data_out[55] la_data_out[56] la_data_out[57] la_data_out[58]
+ la_data_out[59] la_data_out[5] la_data_out[60] la_data_out[61] la_data_out[62] la_data_out[63]
+ la_data_out[64] la_data_out[65] la_data_out[66] la_data_out[67] la_data_out[68]
+ la_data_out[69] la_data_out[6] la_data_out[70] la_data_out[71] la_data_out[72] la_data_out[73]
+ la_data_out[74] la_data_out[75] la_data_out[76] la_data_out[77] la_data_out[78]
+ la_data_out[79] la_data_out[7] la_data_out[80] la_data_out[81] la_data_out[82] la_data_out[83]
+ la_data_out[84] la_data_out[85] la_data_out[86] la_data_out[87] la_data_out[88]
+ la_data_out[89] la_data_out[8] la_data_out[90] la_data_out[91] la_data_out[92] la_data_out[93]
+ la_data_out[94] la_data_out[95] la_data_out[96] la_data_out[97] la_data_out[98]
+ la_data_out[99] la_data_out[9] la_oenb[0] la_oenb[100] la_oenb[101] la_oenb[102]
+ la_oenb[103] la_oenb[104] la_oenb[105] la_oenb[106] la_oenb[107] la_oenb[108] la_oenb[109]
+ la_oenb[10] la_oenb[110] la_oenb[111] la_oenb[112] la_oenb[113] la_oenb[114] la_oenb[115]
+ la_oenb[116] la_oenb[117] la_oenb[118] la_oenb[119] la_oenb[11] la_oenb[120] la_oenb[121]
+ la_oenb[122] la_oenb[123] la_oenb[124] la_oenb[125] la_oenb[126] la_oenb[127] la_oenb[12]
+ la_oenb[13] la_oenb[14] la_oenb[15] la_oenb[16] la_oenb[17] la_oenb[18] la_oenb[19]
+ la_oenb[1] la_oenb[20] la_oenb[21] la_oenb[22] la_oenb[23] la_oenb[24] la_oenb[25]
+ la_oenb[26] la_oenb[27] la_oenb[28] la_oenb[29] la_oenb[2] la_oenb[30] la_oenb[31]
+ la_oenb[32] la_oenb[33] la_oenb[34] la_oenb[35] la_oenb[36] la_oenb[37] la_oenb[38]
+ la_oenb[39] la_oenb[3] la_oenb[40] la_oenb[41] la_oenb[42] la_oenb[43] la_oenb[44]
+ la_oenb[45] la_oenb[46] la_oenb[47] la_oenb[48] la_oenb[49] la_oenb[4] la_oenb[50]
+ la_oenb[51] la_oenb[52] la_oenb[53] la_oenb[54] la_oenb[55] la_oenb[56] la_oenb[57]
+ la_oenb[58] la_oenb[59] la_oenb[5] la_oenb[60] la_oenb[61] la_oenb[62] la_oenb[63]
+ la_oenb[64] la_oenb[65] la_oenb[66] la_oenb[67] la_oenb[68] la_oenb[69] la_oenb[6]
+ la_oenb[70] la_oenb[71] la_oenb[72] la_oenb[73] la_oenb[74] la_oenb[75] la_oenb[76]
+ la_oenb[77] la_oenb[78] la_oenb[79] la_oenb[7] la_oenb[80] la_oenb[81] la_oenb[82]
+ la_oenb[83] la_oenb[84] la_oenb[85] la_oenb[86] la_oenb[87] la_oenb[88] la_oenb[89]
+ la_oenb[8] la_oenb[90] la_oenb[91] la_oenb[92] la_oenb[93] la_oenb[94] la_oenb[95]
+ la_oenb[96] la_oenb[97] la_oenb[98] la_oenb[99] la_oenb[9] user_clock2 user_irq[0]
+ user_irq[1] user_irq[2] wb_clk_i wb_rst_i wbs_ack_o wbs_adr_i[0] wbs_adr_i[10] wbs_adr_i[11]
+ wbs_adr_i[12] wbs_adr_i[13] wbs_adr_i[14] wbs_adr_i[15] wbs_adr_i[16] wbs_adr_i[17]
+ wbs_adr_i[18] wbs_adr_i[19] wbs_adr_i[1] wbs_adr_i[20] wbs_adr_i[21] wbs_adr_i[22]
+ wbs_adr_i[23] wbs_adr_i[24] wbs_adr_i[25] wbs_adr_i[26] wbs_adr_i[27] wbs_adr_i[28]
+ wbs_adr_i[29] wbs_adr_i[2] wbs_adr_i[30] wbs_adr_i[31] wbs_adr_i[3] wbs_adr_i[4]
+ wbs_adr_i[5] wbs_adr_i[6] wbs_adr_i[7] wbs_adr_i[8] wbs_adr_i[9] wbs_cyc_i wbs_dat_i[0]
+ wbs_dat_i[10] wbs_dat_i[11] wbs_dat_i[12] wbs_dat_i[13] wbs_dat_i[14] wbs_dat_i[15]
+ wbs_dat_i[16] wbs_dat_i[17] wbs_dat_i[18] wbs_dat_i[19] wbs_dat_i[1] wbs_dat_i[20]
+ wbs_dat_i[21] wbs_dat_i[22] wbs_dat_i[23] wbs_dat_i[24] wbs_dat_i[25] wbs_dat_i[26]
+ wbs_dat_i[27] wbs_dat_i[28] wbs_dat_i[29] wbs_dat_i[2] wbs_dat_i[30] wbs_dat_i[31]
+ wbs_dat_i[3] wbs_dat_i[4] wbs_dat_i[5] wbs_dat_i[6] wbs_dat_i[7] wbs_dat_i[8] wbs_dat_i[9]
+ wbs_dat_o[0] wbs_dat_o[10] wbs_dat_o[11] wbs_dat_o[12] wbs_dat_o[13] wbs_dat_o[14]
+ wbs_dat_o[15] wbs_dat_o[16] wbs_dat_o[17] wbs_dat_o[18] wbs_dat_o[19] wbs_dat_o[1]
+ wbs_dat_o[20] wbs_dat_o[21] wbs_dat_o[22] wbs_dat_o[23] wbs_dat_o[24] wbs_dat_o[25]
+ wbs_dat_o[26] wbs_dat_o[27] wbs_dat_o[28] wbs_dat_o[29] wbs_dat_o[2] wbs_dat_o[30]
+ wbs_dat_o[31] wbs_dat_o[3] wbs_dat_o[4] wbs_dat_o[5] wbs_dat_o[6] wbs_dat_o[7] wbs_dat_o[8]
+ wbs_dat_o[9] wbs_sel_i[0] wbs_sel_i[1] wbs_sel_i[2] wbs_sel_i[3] wbs_stb_i wbs_we_i
+ VPWR VGND
XFILLER_79_391 VGND VGND VPWR VPWR sky130_fd_sc_hd__decap_8
XFILLER_39_277 VGND VGND VPWR VPWR sky130_fd_sc_hd__decap_8
XFILLER_94_372 VGND VGND VPWR VPWR sky130_fd_sc_hd__decap_12
XFILLER_54_225 VGND VGND VPWR VPWR sky130_fd_sc_hd__decap_12
XFILLER_82_567 VGND VGND VPWR VPWR sky130_fd_sc_hd__decap_12
XFILLER_54_258 VGND VGND VPWR VPWR sky130_fd_sc_hd__decap_12
XFILLER_22_111 VGND VGND VPWR VPWR sky130_fd_sc_hd__decap_12
XPHY_1707 VGND VPWR sky130_fd_sc_hd__tapvpwrvgnd_1
XFILLER_22_144 VGND VGND VPWR VPWR sky130_fd_sc_hd__decap_8
XFILLER_50_453 VGND VGND VPWR VPWR sky130_fd_sc_hd__decap_12
XFILLER_22_177 VGND VGND VPWR VPWR sky130_fd_sc_hd__decap_4
XFILLER_50_486 VGND VGND VPWR VPWR sky130_fd_sc_hd__decap_12
XFILLER_108_249 VGND VGND VPWR VPWR sky130_fd_sc_hd__decap_8
XFILLER_116_282 VGND VGND VPWR VPWR sky130_fd_sc_hd__decap_12
XFILLER_77_15 VGND VGND VPWR VPWR sky130_fd_sc_hd__decap_12
XFILLER_46_726 VGND VGND VPWR VPWR sky130_fd_sc_hd__decap_6
XANTENNA_input127_A la_data_in[64] VGND VGND VPWR VPWR sky130_fd_sc_hd__diode_2
XFILLER_45_225 VGND VGND VPWR VPWR sky130_fd_sc_hd__decap_3
XFILLER_93_58 VGND VGND VPWR VPWR sky130_fd_sc_hd__decap_12
XFILLER_26_30 VGND VGND VPWR VPWR sky130_fd_sc_hd__decap_12
XFILLER_61_729 VGND VGND VPWR VPWR sky130_fd_sc_hd__decap_4
XFILLER_14_634 VGND VGND VPWR VPWR sky130_fd_sc_hd__decap_12
XFILLER_13_155 VGND VGND VPWR VPWR sky130_fd_sc_hd__decap_4
XFILLER_9_115 VGND VGND VPWR VPWR sky130_fd_sc_hd__decap_4
XFILLER_14_667 VGND VGND VPWR VPWR sky130_fd_sc_hd__decap_12
X_294_ VGND VGND VPWR VPWR _294_/HI _294_/LO sky130_fd_sc_hd__conb_1
XANTENNA_input92_A la_data_in[32] VGND VGND VPWR VPWR sky130_fd_sc_hd__diode_2
XFILLER_68_306 VGND VGND VPWR VPWR sky130_fd_sc_hd__fill_1
XFILLER_1_560 VGND VGND VPWR VPWR sky130_fd_sc_hd__decap_8
XFILLER_96_648 VGND VGND VPWR VPWR sky130_fd_sc_hd__decap_8
XFILLER_68_339 VGND VGND VPWR VPWR sky130_fd_sc_hd__decap_12
XFILLER_3_78 VGND VGND VPWR VPWR sky130_fd_sc_hd__fill_1
XFILLER_3_89 VGND VGND VPWR VPWR sky130_fd_sc_hd__decap_4
XFILLER_1_593 VGND VGND VPWR VPWR sky130_fd_sc_hd__decap_4
XFILLER_67_70 VGND VGND VPWR VPWR sky130_fd_sc_hd__decap_12
XFILLER_64_534 VGND VGND VPWR VPWR sky130_fd_sc_hd__decap_8
XFILLER_76_372 VGND VGND VPWR VPWR sky130_fd_sc_hd__decap_4
XFILLER_36_225 VGND VGND VPWR VPWR sky130_fd_sc_hd__decap_12
XFILLER_64_567 VGND VGND VPWR VPWR sky130_fd_sc_hd__decap_12
XFILLER_36_258 VGND VGND VPWR VPWR sky130_fd_sc_hd__decap_12
XFILLER_52_729 VGND VGND VPWR VPWR sky130_fd_sc_hd__decap_4
XFILLER_32_431 VGND VGND VPWR VPWR sky130_fd_sc_hd__decap_4
XFILLER_9_660 VGND VGND VPWR VPWR sky130_fd_sc_hd__decap_4
XFILLER_9_693 VGND VGND VPWR VPWR sky130_fd_sc_hd__decap_4
Xoutput401 _109_/LO VGND VGND VPWR VPWR io_oeb[5] sky130_fd_sc_hd__clkbuf_2
Xoutput412 _154_/LO VGND VGND VPWR VPWR io_out[15] sky130_fd_sc_hd__clkbuf_2
Xoutput423 _164_/LO VGND VGND VPWR VPWR io_out[25] sky130_fd_sc_hd__clkbuf_2
Xoutput434 _340_/Q VGND VGND VPWR VPWR io_out[35] sky130_fd_sc_hd__clkbuf_2
XFILLER_113_241 VGND VGND VPWR VPWR sky130_fd_sc_hd__decap_12
Xoutput478 _182_/LO VGND VGND VPWR VPWR la_data_out[15] sky130_fd_sc_hd__clkbuf_2
Xoutput445 _267_/LO VGND VGND VPWR VPWR la_data_out[100] sky130_fd_sc_hd__clkbuf_2
Xoutput456 _277_/LO VGND VGND VPWR VPWR la_data_out[110] sky130_fd_sc_hd__clkbuf_2
Xoutput467 _287_/LO VGND VGND VPWR VPWR la_data_out[120] sky130_fd_sc_hd__clkbuf_2
Xoutput489 _192_/LO VGND VGND VPWR VPWR la_data_out[25] sky130_fd_sc_hd__clkbuf_2
XFILLER_101_436 VGND VGND VPWR VPWR sky130_fd_sc_hd__decap_12
XFILLER_101_469 VGND VGND VPWR VPWR sky130_fd_sc_hd__decap_12
XFILLER_94_180 VGND VGND VPWR VPWR sky130_fd_sc_hd__decap_12
XFILLER_67_372 VGND VGND VPWR VPWR sky130_fd_sc_hd__decap_12
XFILLER_15_409 VGND VGND VPWR VPWR sky130_fd_sc_hd__decap_4
XFILLER_43_729 VGND VGND VPWR VPWR sky130_fd_sc_hd__decap_4
XPHY_916 VGND VPWR sky130_fd_sc_hd__tapvpwrvgnd_1
XPHY_905 VGND VPWR sky130_fd_sc_hd__tapvpwrvgnd_1
XPHY_927 VGND VPWR sky130_fd_sc_hd__tapvpwrvgnd_1
XPHY_1515 VGND VPWR sky130_fd_sc_hd__tapvpwrvgnd_1
XPHY_1504 VGND VPWR sky130_fd_sc_hd__tapvpwrvgnd_1
XPHY_949 VGND VPWR sky130_fd_sc_hd__tapvpwrvgnd_1
XPHY_938 VGND VPWR sky130_fd_sc_hd__tapvpwrvgnd_1
XPHY_1526 VGND VPWR sky130_fd_sc_hd__tapvpwrvgnd_1
XFILLER_10_125 VGND VGND VPWR VPWR sky130_fd_sc_hd__decap_4
XPHY_1548 VGND VPWR sky130_fd_sc_hd__tapvpwrvgnd_1
XFILLER_11_626 VGND VGND VPWR VPWR sky130_fd_sc_hd__decap_12
XPHY_1537 VGND VPWR sky130_fd_sc_hd__tapvpwrvgnd_1
XFILLER_109_514 VGND VGND VPWR VPWR sky130_fd_sc_hd__decap_12
XPHY_1559 VGND VPWR sky130_fd_sc_hd__tapvpwrvgnd_1
XFILLER_12_32 VGND VGND VPWR VPWR sky130_fd_sc_hd__decap_4
XFILLER_6_118 VGND VGND VPWR VPWR sky130_fd_sc_hd__decap_4
XFILLER_12_65 VGND VGND VPWR VPWR sky130_fd_sc_hd__decap_4
XFILLER_88_25 VGND VGND VPWR VPWR sky130_fd_sc_hd__decap_4
XFILLER_12_98 VGND VGND VPWR VPWR sky130_fd_sc_hd__decap_4
XFILLER_78_637 VGND VGND VPWR VPWR sky130_fd_sc_hd__decap_12
XANTENNA_input244_A la_oenb[54] VGND VGND VPWR VPWR sky130_fd_sc_hd__diode_2
XFILLER_86_681 VGND VGND VPWR VPWR sky130_fd_sc_hd__decap_12
XFILLER_58_372 VGND VGND VPWR VPWR sky130_fd_sc_hd__decap_12
XFILLER_37_51 VGND VGND VPWR VPWR sky130_fd_sc_hd__decap_6
XFILLER_46_534 VGND VGND VPWR VPWR sky130_fd_sc_hd__decap_8
XFILLER_46_567 VGND VGND VPWR VPWR sky130_fd_sc_hd__decap_12
XFILLER_61_526 VGND VGND VPWR VPWR sky130_fd_sc_hd__decap_12
XFILLER_37_95 VGND VGND VPWR VPWR sky130_fd_sc_hd__decap_12
XFILLER_14_486 VGND VGND VPWR VPWR sky130_fd_sc_hd__decap_4
X_346_ _349_/CLK _346_/D VGND VGND VPWR VPWR _346_/Q sky130_fd_sc_hd__dfxtp_4
XFILLER_53_94 VGND VGND VPWR VPWR sky130_fd_sc_hd__decap_12
X_277_ VGND VGND VPWR VPWR _277_/HI _277_/LO sky130_fd_sc_hd__conb_1
XFILLER_10_681 VGND VGND VPWR VPWR sky130_fd_sc_hd__decap_4
XFILLER_6_663 VGND VGND VPWR VPWR sky130_fd_sc_hd__decap_6
XANTENNA_output463_A _284_/LO VGND VGND VPWR VPWR sky130_fd_sc_hd__diode_2
XFILLER_6_696 VGND VGND VPWR VPWR sky130_fd_sc_hd__fill_1
XFILLER_108_591 VGND VGND VPWR VPWR sky130_fd_sc_hd__decap_8
XFILLER_5_184 VGND VGND VPWR VPWR sky130_fd_sc_hd__decap_6
XFILLER_110_211 VGND VGND VPWR VPWR sky130_fd_sc_hd__decap_4
XFILLER_96_478 VGND VGND VPWR VPWR sky130_fd_sc_hd__decap_6
XFILLER_83_106 VGND VGND VPWR VPWR sky130_fd_sc_hd__decap_8
XFILLER_83_139 VGND VGND VPWR VPWR sky130_fd_sc_hd__decap_12
XFILLER_76_180 VGND VGND VPWR VPWR sky130_fd_sc_hd__decap_12
XFILLER_25_707 VGND VGND VPWR VPWR sky130_fd_sc_hd__decap_12
XFILLER_91_161 VGND VGND VPWR VPWR sky130_fd_sc_hd__decap_8
XFILLER_91_172 VGND VGND VPWR VPWR sky130_fd_sc_hd__decap_12
XFILLER_118_322 VGND VGND VPWR VPWR sky130_fd_sc_hd__decap_12
XFILLER_106_506 VGND VGND VPWR VPWR sky130_fd_sc_hd__decap_12
XFILLER_114_561 VGND VGND VPWR VPWR sky130_fd_sc_hd__decap_12
XFILLER_87_412 VGND VGND VPWR VPWR sky130_fd_sc_hd__decap_12
XFILLER_58_17 VGND VGND VPWR VPWR sky130_fd_sc_hd__decap_12
XFILLER_75_607 VGND VGND VPWR VPWR sky130_fd_sc_hd__decap_12
XFILLER_68_681 VGND VGND VPWR VPWR sky130_fd_sc_hd__decap_12
XFILLER_74_128 VGND VGND VPWR VPWR sky130_fd_sc_hd__decap_12
XFILLER_114_78 VGND VGND VPWR VPWR sky130_fd_sc_hd__decap_8
XFILLER_83_640 VGND VGND VPWR VPWR sky130_fd_sc_hd__decap_12
XFILLER_16_707 VGND VGND VPWR VPWR sky130_fd_sc_hd__decap_4
XFILLER_74_27 VGND VGND VPWR VPWR sky130_fd_sc_hd__fill_2
XFILLER_16_729 VGND VGND VPWR VPWR sky130_fd_sc_hd__decap_4
XFILLER_28_589 VGND VGND VPWR VPWR sky130_fd_sc_hd__decap_8
XPHY_702 VGND VPWR sky130_fd_sc_hd__tapvpwrvgnd_1
XFILLER_90_15 VGND VGND VPWR VPWR sky130_fd_sc_hd__decap_12
XPHY_724 VGND VPWR sky130_fd_sc_hd__tapvpwrvgnd_1
XPHY_713 VGND VPWR sky130_fd_sc_hd__tapvpwrvgnd_1
XPHY_735 VGND VPWR sky130_fd_sc_hd__tapvpwrvgnd_1
XPHY_1301 VGND VPWR sky130_fd_sc_hd__tapvpwrvgnd_1
XPHY_1312 VGND VPWR sky130_fd_sc_hd__tapvpwrvgnd_1
XPHY_1323 VGND VPWR sky130_fd_sc_hd__tapvpwrvgnd_1
XPHY_746 VGND VPWR sky130_fd_sc_hd__tapvpwrvgnd_1
XPHY_757 VGND VPWR sky130_fd_sc_hd__tapvpwrvgnd_1
XPHY_768 VGND VPWR sky130_fd_sc_hd__tapvpwrvgnd_1
X_200_ VGND VGND VPWR VPWR _200_/HI _200_/LO sky130_fd_sc_hd__conb_1
XPHY_1356 VGND VPWR sky130_fd_sc_hd__tapvpwrvgnd_1
XPHY_1345 VGND VPWR sky130_fd_sc_hd__tapvpwrvgnd_1
XPHY_1334 VGND VPWR sky130_fd_sc_hd__tapvpwrvgnd_1
XPHY_779 VGND VPWR sky130_fd_sc_hd__tapvpwrvgnd_1
X_131_ VGND VGND VPWR VPWR _131_/HI _131_/LO sky130_fd_sc_hd__conb_1
XFILLER_23_53 VGND VGND VPWR VPWR sky130_fd_sc_hd__decap_4
XPHY_1367 VGND VPWR sky130_fd_sc_hd__tapvpwrvgnd_1
XPHY_1389 VGND VPWR sky130_fd_sc_hd__tapvpwrvgnd_1
XPHY_1378 VGND VPWR sky130_fd_sc_hd__tapvpwrvgnd_1
XFILLER_109_322 VGND VGND VPWR VPWR sky130_fd_sc_hd__decap_12
XANTENNA_input194_A la_oenb[124] VGND VGND VPWR VPWR sky130_fd_sc_hd__diode_2
XFILLER_109_355 VGND VGND VPWR VPWR sky130_fd_sc_hd__decap_12
X_062_ _062_/A VGND VGND VPWR VPWR _069_/A sky130_fd_sc_hd__buf_4
XANTENNA_input361_A wbs_dat_i[9] VGND VGND VPWR VPWR sky130_fd_sc_hd__diode_2
XFILLER_3_611 VGND VGND VPWR VPWR sky130_fd_sc_hd__decap_6
XFILLER_3_633 VGND VGND VPWR VPWR sky130_fd_sc_hd__decap_4
XFILLER_3_644 VGND VGND VPWR VPWR sky130_fd_sc_hd__fill_1
XANTENNA_input55_A la_data_in[114] VGND VGND VPWR VPWR sky130_fd_sc_hd__diode_2
XFILLER_105_583 VGND VGND VPWR VPWR sky130_fd_sc_hd__decap_12
XFILLER_2_187 VGND VGND VPWR VPWR sky130_fd_sc_hd__decap_4
XFILLER_59_692 VGND VGND VPWR VPWR sky130_fd_sc_hd__decap_12
XFILLER_19_512 VGND VGND VPWR VPWR sky130_fd_sc_hd__decap_12
XFILLER_65_106 VGND VGND VPWR VPWR sky130_fd_sc_hd__decap_8
XFILLER_65_139 VGND VGND VPWR VPWR sky130_fd_sc_hd__decap_12
XFILLER_58_180 VGND VGND VPWR VPWR sky130_fd_sc_hd__decap_12
XFILLER_0_24 VGND VGND VPWR VPWR sky130_fd_sc_hd__decap_4
XFILLER_0_46 VGND VGND VPWR VPWR sky130_fd_sc_hd__decap_4
XFILLER_46_364 VGND VGND VPWR VPWR sky130_fd_sc_hd__decap_6
XFILLER_61_334 VGND VGND VPWR VPWR sky130_fd_sc_hd__decap_8
XFILLER_73_172 VGND VGND VPWR VPWR sky130_fd_sc_hd__decap_12
XFILLER_61_367 VGND VGND VPWR VPWR sky130_fd_sc_hd__decap_12
XFILLER_30_732 VGND VGND VPWR VPWR sky130_fd_sc_hd__fill_1
XANTENNA_output580_A _312_/LO VGND VGND VPWR VPWR sky130_fd_sc_hd__diode_2
XFILLER_9_77 VGND VGND VPWR VPWR sky130_fd_sc_hd__decap_8
XFILLER_9_88 VGND VGND VPWR VPWR sky130_fd_sc_hd__decap_4
X_329_ VGND VGND VPWR VPWR _329_/HI _329_/LO sky130_fd_sc_hd__conb_1
XFILLER_50_3 VGND VGND VPWR VPWR sky130_fd_sc_hd__decap_8
XFILLER_111_520 VGND VGND VPWR VPWR sky130_fd_sc_hd__decap_4
XFILLER_97_721 VGND VGND VPWR VPWR sky130_fd_sc_hd__decap_12
XFILLER_69_412 VGND VGND VPWR VPWR sky130_fd_sc_hd__decap_12
XFILLER_57_607 VGND VGND VPWR VPWR sky130_fd_sc_hd__decap_12
XFILLER_65_640 VGND VGND VPWR VPWR sky130_fd_sc_hd__decap_12
XFILLER_25_548 VGND VGND VPWR VPWR sky130_fd_sc_hd__decap_12
XFILLER_21_721 VGND VGND VPWR VPWR sky130_fd_sc_hd__decap_4
XFILLER_119_653 VGND VGND VPWR VPWR sky130_fd_sc_hd__decap_12
XFILLER_118_141 VGND VGND VPWR VPWR sky130_fd_sc_hd__fill_2
XFILLER_119_697 VGND VGND VPWR VPWR sky130_fd_sc_hd__decap_4
XFILLER_4_408 VGND VGND VPWR VPWR sky130_fd_sc_hd__decap_4
XFILLER_69_27 VGND VGND VPWR VPWR sky130_fd_sc_hd__decap_12
XFILLER_88_732 VGND VGND VPWR VPWR sky130_fd_sc_hd__fill_1
XFILLER_0_625 VGND VGND VPWR VPWR sky130_fd_sc_hd__decap_4
XFILLER_87_253 VGND VGND VPWR VPWR sky130_fd_sc_hd__decap_12
XFILLER_85_15 VGND VGND VPWR VPWR sky130_fd_sc_hd__decap_12
XFILLER_87_286 VGND VGND VPWR VPWR sky130_fd_sc_hd__decap_12
XFILLER_47_106 VGND VGND VPWR VPWR sky130_fd_sc_hd__decap_8
XFILLER_75_448 VGND VGND VPWR VPWR sky130_fd_sc_hd__decap_8
XFILLER_18_42 VGND VGND VPWR VPWR sky130_fd_sc_hd__decap_12
XFILLER_90_429 VGND VGND VPWR VPWR sky130_fd_sc_hd__decap_12
XFILLER_83_481 VGND VGND VPWR VPWR sky130_fd_sc_hd__decap_12
XFILLER_16_526 VGND VGND VPWR VPWR sky130_fd_sc_hd__decap_12
XFILLER_55_172 VGND VGND VPWR VPWR sky130_fd_sc_hd__decap_12
XFILLER_71_676 VGND VGND VPWR VPWR sky130_fd_sc_hd__decap_8
XANTENNA_input207_A la_oenb[20] VGND VGND VPWR VPWR sky130_fd_sc_hd__diode_2
XFILLER_34_30 VGND VGND VPWR VPWR sky130_fd_sc_hd__decap_12
XPHY_510 VGND VPWR sky130_fd_sc_hd__tapvpwrvgnd_1
XFILLER_43_367 VGND VGND VPWR VPWR sky130_fd_sc_hd__decap_12
XFILLER_12_710 VGND VGND VPWR VPWR sky130_fd_sc_hd__fill_1
XFILLER_31_529 VGND VGND VPWR VPWR sky130_fd_sc_hd__decap_12
XPHY_543 VGND VPWR sky130_fd_sc_hd__tapvpwrvgnd_1
XPHY_532 VGND VPWR sky130_fd_sc_hd__tapvpwrvgnd_1
XPHY_521 VGND VPWR sky130_fd_sc_hd__tapvpwrvgnd_1
XPHY_1120 VGND VPWR sky130_fd_sc_hd__tapvpwrvgnd_1
XPHY_1131 VGND VPWR sky130_fd_sc_hd__tapvpwrvgnd_1
XPHY_587 VGND VPWR sky130_fd_sc_hd__tapvpwrvgnd_1
XPHY_565 VGND VPWR sky130_fd_sc_hd__tapvpwrvgnd_1
XPHY_576 VGND VPWR sky130_fd_sc_hd__tapvpwrvgnd_1
XPHY_554 VGND VPWR sky130_fd_sc_hd__tapvpwrvgnd_1
XPHY_1142 VGND VPWR sky130_fd_sc_hd__tapvpwrvgnd_1
XPHY_1164 VGND VPWR sky130_fd_sc_hd__tapvpwrvgnd_1
XPHY_1153 VGND VPWR sky130_fd_sc_hd__tapvpwrvgnd_1
XPHY_1175 VGND VPWR sky130_fd_sc_hd__tapvpwrvgnd_1
XPHY_598 VGND VPWR sky130_fd_sc_hd__tapvpwrvgnd_1
XPHY_1186 VGND VPWR sky130_fd_sc_hd__tapvpwrvgnd_1
XPHY_1197 VGND VPWR sky130_fd_sc_hd__tapvpwrvgnd_1
X_114_ VGND VGND VPWR VPWR _114_/HI _114_/LO sky130_fd_sc_hd__conb_1
XFILLER_109_163 VGND VGND VPWR VPWR sky130_fd_sc_hd__decap_8
XFILLER_112_306 VGND VGND VPWR VPWR sky130_fd_sc_hd__decap_8
XFILLER_3_463 VGND VGND VPWR VPWR sky130_fd_sc_hd__decap_8
XFILLER_112_339 VGND VGND VPWR VPWR sky130_fd_sc_hd__decap_12
XFILLER_3_496 VGND VGND VPWR VPWR sky130_fd_sc_hd__decap_4
XFILLER_105_391 VGND VGND VPWR VPWR sky130_fd_sc_hd__decap_8
XFILLER_59_93 VGND VGND VPWR VPWR sky130_fd_sc_hd__decap_12
XANTENNA_output426_A _166_/LO VGND VGND VPWR VPWR sky130_fd_sc_hd__diode_2
XFILLER_38_128 VGND VGND VPWR VPWR sky130_fd_sc_hd__decap_12
XFILLER_66_448 VGND VGND VPWR VPWR sky130_fd_sc_hd__decap_12
XFILLER_47_640 VGND VGND VPWR VPWR sky130_fd_sc_hd__decap_4
XFILLER_75_70 VGND VGND VPWR VPWR sky130_fd_sc_hd__decap_12
XFILLER_34_345 VGND VGND VPWR VPWR sky130_fd_sc_hd__fill_1
XFILLER_98_3 VGND VGND VPWR VPWR sky130_fd_sc_hd__decap_12
XFILLER_15_581 VGND VGND VPWR VPWR sky130_fd_sc_hd__decap_12
XFILLER_30_584 VGND VGND VPWR VPWR sky130_fd_sc_hd__decap_12
XFILLER_116_612 VGND VGND VPWR VPWR sky130_fd_sc_hd__decap_12
XFILLER_103_317 VGND VGND VPWR VPWR sky130_fd_sc_hd__decap_12
XFILLER_69_220 VGND VGND VPWR VPWR sky130_fd_sc_hd__decap_8
XFILLER_97_562 VGND VGND VPWR VPWR sky130_fd_sc_hd__decap_8
XFILLER_69_253 VGND VGND VPWR VPWR sky130_fd_sc_hd__decap_12
XFILLER_97_595 VGND VGND VPWR VPWR sky130_fd_sc_hd__decap_12
XFILLER_84_201 VGND VGND VPWR VPWR sky130_fd_sc_hd__decap_12
XFILLER_69_286 VGND VGND VPWR VPWR sky130_fd_sc_hd__decap_12
XFILLER_29_106 VGND VGND VPWR VPWR sky130_fd_sc_hd__decap_8
XFILLER_29_139 VGND VGND VPWR VPWR sky130_fd_sc_hd__decap_12
XFILLER_72_429 VGND VGND VPWR VPWR sky130_fd_sc_hd__decap_12