* NGSPICE file created from adc_wrapper.ext - technology: sky130A

* Black-box entry subcircuit for sky130_fd_sc_hd__decap_12 abstract view
.subckt sky130_fd_sc_hd__decap_12 VGND VNB VPB VPWR
.ends

* Black-box entry subcircuit for sky130_fd_sc_hd__decap_8 abstract view
.subckt sky130_fd_sc_hd__decap_8 VGND VNB VPB VPWR
.ends

* Black-box entry subcircuit for sky130_fd_sc_hd__decap_4 abstract view
.subckt sky130_fd_sc_hd__decap_4 VGND VNB VPB VPWR
.ends

* Black-box entry subcircuit for sky130_fd_sc_hd__tapvpwrvgnd_1 abstract view
.subckt sky130_fd_sc_hd__tapvpwrvgnd_1 VGND VPWR
.ends

* Black-box entry subcircuit for sky130_fd_sc_hd__decap_3 abstract view
.subckt sky130_fd_sc_hd__decap_3 VGND VNB VPB VPWR
.ends

* Black-box entry subcircuit for sky130_fd_sc_hd__diode_2 abstract view
.subckt sky130_fd_sc_hd__diode_2 DIODE VGND VNB VPB VPWR
.ends

* Black-box entry subcircuit for sky130_fd_sc_hd__fill_1 abstract view
.subckt sky130_fd_sc_hd__fill_1 VGND VNB VPB VPWR
.ends

* Black-box entry subcircuit for sky130_fd_sc_hd__decap_6 abstract view
.subckt sky130_fd_sc_hd__decap_6 VGND VNB VPB VPWR
.ends

* Black-box entry subcircuit for sky130_fd_sc_hd__conb_1 abstract view
.subckt sky130_fd_sc_hd__conb_1 VGND VNB VPB VPWR HI LO
.ends

* Black-box entry subcircuit for sky130_fd_sc_hd__fill_2 abstract view
.subckt sky130_fd_sc_hd__fill_2 VGND VNB VPB VPWR
.ends

* Black-box entry subcircuit for sky130_fd_sc_hd__clkbuf_2 abstract view
.subckt sky130_fd_sc_hd__clkbuf_2 A VGND VNB VPB VPWR X
.ends

* Black-box entry subcircuit for sky130_fd_sc_hd__dfxtp_2 abstract view
.subckt sky130_fd_sc_hd__dfxtp_2 CLK D VGND VNB VPB VPWR Q
.ends

* Black-box entry subcircuit for sky130_fd_sc_hd__inv_2 abstract view
.subckt sky130_fd_sc_hd__inv_2 A VGND VNB VPB VPWR Y
.ends

* Black-box entry subcircuit for sky130_fd_sc_hd__buf_1 abstract view
.subckt sky130_fd_sc_hd__buf_1 A VGND VNB VPB VPWR X
.ends

* Black-box entry subcircuit for sky130_fd_sc_hd__dfxtp_1 abstract view
.subckt sky130_fd_sc_hd__dfxtp_1 CLK D VGND VNB VPB VPWR Q
.ends

* Black-box entry subcircuit for sky130_fd_sc_hd__a22o_1 abstract view
.subckt sky130_fd_sc_hd__a22o_1 A1 A2 B1 B2 VGND VNB VPB VPWR X
.ends

* Black-box entry subcircuit for sky130_fd_sc_hd__or4_4 abstract view
.subckt sky130_fd_sc_hd__or4_4 A B C D VGND VNB VPB VPWR X
.ends

* Black-box entry subcircuit for sky130_fd_sc_hd__or2_1 abstract view
.subckt sky130_fd_sc_hd__or2_1 A B VGND VNB VPB VPWR X
.ends

* Black-box entry subcircuit for sky130_fd_sc_hd__o311a_1 abstract view
.subckt sky130_fd_sc_hd__o311a_1 A1 A2 A3 B1 C1 VGND VNB VPB VPWR X
.ends

* Black-box entry subcircuit for sky130_fd_sc_hd__nor2_4 abstract view
.subckt sky130_fd_sc_hd__nor2_4 A B VGND VNB VPB VPWR Y
.ends

* Black-box entry subcircuit for sky130_fd_sc_hd__a31o_1 abstract view
.subckt sky130_fd_sc_hd__a31o_1 A1 A2 A3 B1 VGND VNB VPB VPWR X
.ends

* Black-box entry subcircuit for sky130_fd_sc_hd__buf_4 abstract view
.subckt sky130_fd_sc_hd__buf_4 A VGND VNB VPB VPWR X
.ends

* Black-box entry subcircuit for sky130_fd_sc_hd__clkbuf_4 abstract view
.subckt sky130_fd_sc_hd__clkbuf_4 A VGND VNB VPB VPWR X
.ends

* Black-box entry subcircuit for sky130_fd_sc_hd__buf_2 abstract view
.subckt sky130_fd_sc_hd__buf_2 A VGND VNB VPB VPWR X
.ends

* Black-box entry subcircuit for sky130_fd_sc_hd__dfrtp_2 abstract view
.subckt sky130_fd_sc_hd__dfrtp_2 CLK D RESET_B VGND VNB VPB VPWR Q
.ends

* Black-box entry subcircuit for sky130_fd_sc_hd__clkinv_4 abstract view
.subckt sky130_fd_sc_hd__clkinv_4 A VGND VNB VPB VPWR Y
.ends

* Black-box entry subcircuit for sky130_fd_sc_hd__buf_6 abstract view
.subckt sky130_fd_sc_hd__buf_6 A VGND VNB VPB VPWR X
.ends

* Black-box entry subcircuit for sky130_fd_sc_hd__dfrtp_4 abstract view
.subckt sky130_fd_sc_hd__dfrtp_4 CLK D RESET_B VGND VNB VPB VPWR Q
.ends

* Black-box entry subcircuit for sky130_fd_sc_hd__nand2_2 abstract view
.subckt sky130_fd_sc_hd__nand2_2 A B VGND VNB VPB VPWR Y
.ends

* Black-box entry subcircuit for sky130_fd_sc_hd__dfxtp_4 abstract view
.subckt sky130_fd_sc_hd__dfxtp_4 CLK D VGND VNB VPB VPWR Q
.ends

* Black-box entry subcircuit for sky130_fd_sc_hd__mux2_8 abstract view
.subckt sky130_fd_sc_hd__mux2_8 A0 A1 S VGND VNB VPB VPWR X
.ends

* Black-box entry subcircuit for sky130_fd_sc_hd__clkbuf_1 abstract view
.subckt sky130_fd_sc_hd__clkbuf_1 A VGND VNB VPB VPWR X
.ends

* Black-box entry subcircuit for sky130_fd_sc_hd__o21ai_1 abstract view
.subckt sky130_fd_sc_hd__o21ai_1 A1 A2 B1 VGND VNB VPB VPWR Y
.ends

* Black-box entry subcircuit for sky130_fd_sc_hd__buf_8 abstract view
.subckt sky130_fd_sc_hd__buf_8 A VGND VNB VPB VPWR X
.ends

* Black-box entry subcircuit for sky130_fd_sc_hd__nor2_1 abstract view
.subckt sky130_fd_sc_hd__nor2_1 A B VGND VNB VPB VPWR Y
.ends

* Black-box entry subcircuit for sky130_fd_sc_hd__a21o_1 abstract view
.subckt sky130_fd_sc_hd__a21o_1 A1 A2 B1 VGND VNB VPB VPWR X
.ends

* Black-box entry subcircuit for sky130_fd_sc_hd__or2_4 abstract view
.subckt sky130_fd_sc_hd__or2_4 A B VGND VNB VPB VPWR X
.ends

* Black-box entry subcircuit for ACMP abstract view
.subckt ACMP INN INP Q VDD VSS clk vccd2 vssd2
.ends

* Black-box entry subcircuit for sky130_fd_sc_hd__or3_4 abstract view
.subckt sky130_fd_sc_hd__or3_4 A B C VGND VNB VPB VPWR X
.ends

* Black-box entry subcircuit for DAC_8BIT abstract view
.subckt DAC_8BIT d0 d1 d2 d3 d4 d5 d6 x2_out_v x1_out_v out_v d7 inp1 x2_vref1 x1_vref5
+ inp2 gnd vdd
.ends

.subckt adc_wrapper analog_io[0] analog_io[10] analog_io[11] analog_io[12] analog_io[13]
+ analog_io[14] analog_io[15] analog_io[16] analog_io[17] analog_io[18] analog_io[19]
+ analog_io[1] analog_io[20] analog_io[21] analog_io[22] analog_io[23] analog_io[24]
+ analog_io[25] analog_io[26] analog_io[27] analog_io[28] analog_io[2] analog_io[3]
+ analog_io[4] analog_io[5] analog_io[6] analog_io[7] analog_io[8] analog_io[9] io_in[0]
+ io_in[10] io_in[11] io_in[12] io_in[13] io_in[14] io_in[15] io_in[16] io_in[17]
+ io_in[18] io_in[19] io_in[1] io_in[20] io_in[21] io_in[22] io_in[23] io_in[24] io_in[25]
+ io_in[26] io_in[27] io_in[28] io_in[29] io_in[2] io_in[30] io_in[31] io_in[32] io_in[33]
+ io_in[34] io_in[35] io_in[36] io_in[37] io_in[3] io_in[4] io_in[5] io_in[6] io_in[7]
+ io_in[8] io_in[9] io_oeb[0] io_oeb[10] io_oeb[11] io_oeb[12] io_oeb[13] io_oeb[14]
+ io_oeb[15] io_oeb[16] io_oeb[17] io_oeb[18] io_oeb[19] io_oeb[1] io_oeb[20] io_oeb[21]
+ io_oeb[22] io_oeb[23] io_oeb[24] io_oeb[25] io_oeb[26] io_oeb[27] io_oeb[28] io_oeb[29]
+ io_oeb[2] io_oeb[30] io_oeb[31] io_oeb[32] io_oeb[33] io_oeb[34] io_oeb[35] io_oeb[36]
+ io_oeb[37] io_oeb[3] io_oeb[4] io_oeb[5] io_oeb[6] io_oeb[7] io_oeb[8] io_oeb[9]
+ io_out[0] io_out[10] io_out[11] io_out[12] io_out[13] io_out[14] io_out[15] io_out[16]
+ io_out[17] io_out[18] io_out[19] io_out[1] io_out[20] io_out[21] io_out[22] io_out[23]
+ io_out[24] io_out[25] io_out[26] io_out[27] io_out[28] io_out[29] io_out[2] io_out[30]
+ io_out[31] io_out[32] io_out[33] io_out[34] io_out[35] io_out[36] io_out[37] io_out[3]
+ io_out[4] io_out[5] io_out[6] io_out[7] io_out[8] io_out[9] la_data_in[0] la_data_in[100]
+ la_data_in[101] la_data_in[102] la_data_in[103] la_data_in[104] la_data_in[105]
+ la_data_in[106] la_data_in[107] la_data_in[108] la_data_in[109] la_data_in[10] la_data_in[110]
+ la_data_in[111] la_data_in[112] la_data_in[113] la_data_in[114] la_data_in[115]
+ la_data_in[116] la_data_in[117] la_data_in[118] la_data_in[119] la_data_in[11] la_data_in[120]
+ la_data_in[121] la_data_in[122] la_data_in[123] la_data_in[124] la_data_in[125]
+ la_data_in[126] la_data_in[127] la_data_in[12] la_data_in[13] la_data_in[14] la_data_in[15]
+ la_data_in[16] la_data_in[17] la_data_in[18] la_data_in[19] la_data_in[1] la_data_in[20]
+ la_data_in[21] la_data_in[22] la_data_in[23] la_data_in[24] la_data_in[25] la_data_in[26]
+ la_data_in[27] la_data_in[28] la_data_in[29] la_data_in[2] la_data_in[30] la_data_in[31]
+ la_data_in[32] la_data_in[33] la_data_in[34] la_data_in[35] la_data_in[36] la_data_in[37]
+ la_data_in[38] la_data_in[39] la_data_in[3] la_data_in[40] la_data_in[41] la_data_in[42]
+ la_data_in[43] la_data_in[44] la_data_in[45] la_data_in[46] la_data_in[47] la_data_in[48]
+ la_data_in[49] la_data_in[4] la_data_in[50] la_data_in[51] la_data_in[52] la_data_in[53]
+ la_data_in[54] la_data_in[55] la_data_in[56] la_data_in[57] la_data_in[58] la_data_in[59]
+ la_data_in[5] la_data_in[60] la_data_in[61] la_data_in[62] la_data_in[63] la_data_in[64]
+ la_data_in[65] la_data_in[66] la_data_in[67] la_data_in[68] la_data_in[69] la_data_in[6]
+ la_data_in[70] la_data_in[71] la_data_in[72] la_data_in[73] la_data_in[74] la_data_in[75]
+ la_data_in[76] la_data_in[77] la_data_in[78] la_data_in[79] la_data_in[7] la_data_in[80]
+ la_data_in[81] la_data_in[82] la_data_in[83] la_data_in[84] la_data_in[85] la_data_in[86]
+ la_data_in[87] la_data_in[88] la_data_in[89] la_data_in[8] la_data_in[90] la_data_in[91]
+ la_data_in[92] la_data_in[93] la_data_in[94] la_data_in[95] la_data_in[96] la_data_in[97]
+ la_data_in[98] la_data_in[99] la_data_in[9] la_data_out[0] la_data_out[100] la_data_out[101]
+ la_data_out[102] la_data_out[103] la_data_out[104] la_data_out[105] la_data_out[106]
+ la_data_out[107] la_data_out[108] la_data_out[109] la_data_out[10] la_data_out[110]
+ la_data_out[111] la_data_out[112] la_data_out[113] la_data_out[114] la_data_out[115]
+ la_data_out[116] la_data_out[117] la_data_out[118] la_data_out[119] la_data_out[11]
+ la_data_out[120] la_data_out[121] la_data_out[122] la_data_out[123] la_data_out[124]
+ la_data_out[125] la_data_out[126] la_data_out[127] la_data_out[12] la_data_out[13]
+ la_data_out[14] la_data_out[15] la_data_out[16] la_data_out[17] la_data_out[18]
+ la_data_out[19] la_data_out[1] la_data_out[20] la_data_out[21] la_data_out[22] la_data_out[23]
+ la_data_out[24] la_data_out[25] la_data_out[26] la_data_out[27] la_data_out[28]
+ la_data_out[29] la_data_out[2] la_data_out[30] la_data_out[31] la_data_out[32] la_data_out[33]
+ la_data_out[34] la_data_out[35] la_data_out[36] la_data_out[37] la_data_out[38]
+ la_data_out[39] la_data_out[3] la_data_out[40] la_data_out[41] la_data_out[42] la_data_out[43]
+ la_data_out[44] la_data_out[45] la_data_out[46] la_data_out[47] la_data_out[48]
+ la_data_out[49] la_data_out[4] la_data_out[50] la_data_out[51] la_data_out[52] la_data_out[53]
+ la_data_out[54] la_data_out[55] la_data_out[56] la_data_out[57] la_data_out[58]
+ la_data_out[59] la_data_out[5] la_data_out[60] la_data_out[61] la_data_out[62] la_data_out[63]
+ la_data_out[64] la_data_out[65] la_data_out[66] la_data_out[67] la_data_out[68]
+ la_data_out[69] la_data_out[6] la_data_out[70] la_data_out[71] la_data_out[72] la_data_out[73]
+ la_data_out[74] la_data_out[75] la_data_out[76] la_data_out[77] la_data_out[78]
+ la_data_out[79] la_data_out[7] la_data_out[80] la_data_out[81] la_data_out[82] la_data_out[83]
+ la_data_out[84] la_data_out[85] la_data_out[86] la_data_out[87] la_data_out[88]
+ la_data_out[89] la_data_out[8] la_data_out[90] la_data_out[91] la_data_out[92] la_data_out[93]
+ la_data_out[94] la_data_out[95] la_data_out[96] la_data_out[97] la_data_out[98]
+ la_data_out[99] la_data_out[9] la_oenb[0] la_oenb[100] la_oenb[101] la_oenb[102]
+ la_oenb[103] la_oenb[104] la_oenb[105] la_oenb[106] la_oenb[107] la_oenb[108] la_oenb[109]
+ la_oenb[10] la_oenb[110] la_oenb[111] la_oenb[112] la_oenb[113] la_oenb[114] la_oenb[115]
+ la_oenb[116] la_oenb[117] la_oenb[118] la_oenb[119] la_oenb[11] la_oenb[120] la_oenb[121]
+ la_oenb[122] la_oenb[123] la_oenb[124] la_oenb[125] la_oenb[126] la_oenb[127] la_oenb[12]
+ la_oenb[13] la_oenb[14] la_oenb[15] la_oenb[16] la_oenb[17] la_oenb[18] la_oenb[19]
+ la_oenb[1] la_oenb[20] la_oenb[21] la_oenb[22] la_oenb[23] la_oenb[24] la_oenb[25]
+ la_oenb[26] la_oenb[27] la_oenb[28] la_oenb[29] la_oenb[2] la_oenb[30] la_oenb[31]
+ la_oenb[32] la_oenb[33] la_oenb[34] la_oenb[35] la_oenb[36] la_oenb[37] la_oenb[38]
+ la_oenb[39] la_oenb[3] la_oenb[40] la_oenb[41] la_oenb[42] la_oenb[43] la_oenb[44]
+ la_oenb[45] la_oenb[46] la_oenb[47] la_oenb[48] la_oenb[49] la_oenb[4] la_oenb[50]
+ la_oenb[51] la_oenb[52] la_oenb[53] la_oenb[54] la_oenb[55] la_oenb[56] la_oenb[57]
+ la_oenb[58] la_oenb[59] la_oenb[5] la_oenb[60] la_oenb[61] la_oenb[62] la_oenb[63]
+ la_oenb[64] la_oenb[65] la_oenb[66] la_oenb[67] la_oenb[68] la_oenb[69] la_oenb[6]
+ la_oenb[70] la_oenb[71] la_oenb[72] la_oenb[73] la_oenb[74] la_oenb[75] la_oenb[76]
+ la_oenb[77] la_oenb[78] la_oenb[79] la_oenb[7] la_oenb[80] la_oenb[81] la_oenb[82]
+ la_oenb[83] la_oenb[84] la_oenb[85] la_oenb[86] la_oenb[87] la_oenb[88] la_oenb[89]
+ la_oenb[8] la_oenb[90] la_oenb[91] la_oenb[92] la_oenb[93] la_oenb[94] la_oenb[95]
+ la_oenb[96] la_oenb[97] la_oenb[98] la_oenb[99] la_oenb[9] user_clock2 user_irq[0]
+ user_irq[1] user_irq[2] wb_clk_i wb_rst_i wbs_ack_o wbs_adr_i[0] wbs_adr_i[10] wbs_adr_i[11]
+ wbs_adr_i[12] wbs_adr_i[13] wbs_adr_i[14] wbs_adr_i[15] wbs_adr_i[16] wbs_adr_i[17]
+ wbs_adr_i[18] wbs_adr_i[19] wbs_adr_i[1] wbs_adr_i[20] wbs_adr_i[21] wbs_adr_i[22]
+ wbs_adr_i[23] wbs_adr_i[24] wbs_adr_i[25] wbs_adr_i[26] wbs_adr_i[27] wbs_adr_i[28]
+ wbs_adr_i[29] wbs_adr_i[2] wbs_adr_i[30] wbs_adr_i[31] wbs_adr_i[3] wbs_adr_i[4]
+ wbs_adr_i[5] wbs_adr_i[6] wbs_adr_i[7] wbs_adr_i[8] wbs_adr_i[9] wbs_cyc_i wbs_dat_i[0]
+ wbs_dat_i[10] wbs_dat_i[11] wbs_dat_i[12] wbs_dat_i[13] wbs_dat_i[14] wbs_dat_i[15]
+ wbs_dat_i[16] wbs_dat_i[17] wbs_dat_i[18] wbs_dat_i[19] wbs_dat_i[1] wbs_dat_i[20]
+ wbs_dat_i[21] wbs_dat_i[22] wbs_dat_i[23] wbs_dat_i[24] wbs_dat_i[25] wbs_dat_i[26]
+ wbs_dat_i[27] wbs_dat_i[28] wbs_dat_i[29] wbs_dat_i[2] wbs_dat_i[30] wbs_dat_i[31]
+ wbs_dat_i[3] wbs_dat_i[4] wbs_dat_i[5] wbs_dat_i[6] wbs_dat_i[7] wbs_dat_i[8] wbs_dat_i[9]
+ wbs_dat_o[0] wbs_dat_o[10] wbs_dat_o[11] wbs_dat_o[12] wbs_dat_o[13] wbs_dat_o[14]
+ wbs_dat_o[15] wbs_dat_o[16] wbs_dat_o[17] wbs_dat_o[18] wbs_dat_o[19] wbs_dat_o[1]
+ wbs_dat_o[20] wbs_dat_o[21] wbs_dat_o[22] wbs_dat_o[23] wbs_dat_o[24] wbs_dat_o[25]
+ wbs_dat_o[26] wbs_dat_o[27] wbs_dat_o[28] wbs_dat_o[29] wbs_dat_o[2] wbs_dat_o[30]
+ wbs_dat_o[31] wbs_dat_o[3] wbs_dat_o[4] wbs_dat_o[5] wbs_dat_o[6] wbs_dat_o[7] wbs_dat_o[8]
+ wbs_dat_o[9] wbs_sel_i[0] wbs_sel_i[1] wbs_sel_i[2] wbs_sel_i[3] wbs_stb_i wbs_we_i
+ vccd1 vssd1 vccd2 vssd2 vssd2_uq0 vssd2_uq1 vssd2_uq2 vssd1_uq0 vssd1_uq1 vccd2_uq0
+ vccd2_uq1 vccd1_uq0 vccd1_uq1
XFILLER_234_1092 vssd1_uq1 vssd1_uq1 vccd1_uq1 vccd1_uq1 sky130_fd_sc_hd__decap_12
XFILLER_79_391 vssd1_uq1 vssd1_uq1 vccd1_uq1 vccd1_uq1 sky130_fd_sc_hd__decap_8
XFILLER_239_172 vssd1_uq1 vssd1_uq1 vccd1_uq1 vccd1_uq1 sky130_fd_sc_hd__decap_12
XFILLER_171_1393 vssd1_uq1 vssd1_uq1 vccd1_uq1 vccd1_uq1 sky130_fd_sc_hd__decap_12
XFILLER_227_334 vssd1_uq1 vssd1_uq1 vccd1_uq1 vccd1_uq1 sky130_fd_sc_hd__decap_8
XFILLER_247_2110 vssd1_uq1 vssd1_uq1 vccd1_uq1 vccd1_uq1 sky130_fd_sc_hd__decap_12
XFILLER_39_277 vssd1_uq1 vssd1_uq1 vccd1_uq1 vccd1_uq1 sky130_fd_sc_hd__decap_8
XFILLER_3_1722 vssd1_uq1 vssd1_uq1 vccd1_uq1 vccd1_uq1 sky130_fd_sc_hd__decap_12
XFILLER_94_372 vssd1_uq1 vssd1_uq1 vccd1_uq1 vccd1_uq1 sky130_fd_sc_hd__decap_12
XFILLER_227_367 vssd1_uq1 vssd1_uq1 vccd1_uq1 vccd1_uq1 sky130_fd_sc_hd__decap_8
XFILLER_23_1672 vssd1_uq1 vssd1_uq1 vccd1_uq1 vccd1_uq1 sky130_fd_sc_hd__decap_12
XFILLER_227_378 vssd1_uq1 vssd1_uq1 vccd1_uq1 vccd1_uq1 sky130_fd_sc_hd__decap_4
XFILLER_54_225 vssd1_uq1 vssd1_uq1 vccd1_uq1 vccd1_uq1 sky130_fd_sc_hd__decap_12
XFILLER_82_534 vssd1_uq1 vssd1_uq1 vccd1_uq1 vccd1_uq1 sky130_fd_sc_hd__decap_8
XFILLER_3_1766 vssd1_uq1 vssd1_uq1 vccd1_uq1 vccd1_uq1 sky130_fd_sc_hd__decap_12
XFILLER_242_315 vssd1_uq1 vssd1_uq1 vccd1_uq1 vccd1_uq1 sky130_fd_sc_hd__decap_12
XFILLER_199_208 vssd1_uq1 vssd1_uq1 vccd1_uq1 vccd1_uq1 sky130_fd_sc_hd__decap_12
XFILLER_54_258 vssd1_uq1 vssd1_uq1 vccd1_uq1 vccd1_uq1 sky130_fd_sc_hd__decap_12
XFILLER_188_1890 vssd1_uq1 vssd1_uq1 vccd1_uq1 vccd1_uq1 sky130_fd_sc_hd__decap_12
XFILLER_42_409 vssd1_uq1 vssd1_uq1 vccd1_uq1 vccd1_uq1 sky130_fd_sc_hd__decap_12
XPHY_3109 vssd1_uq1 vccd1_uq1 sky130_fd_sc_hd__tapvpwrvgnd_1
XFILLER_23_601 vssd1_uq1 vssd1_uq1 vccd1_uq1 vccd1_uq1 sky130_fd_sc_hd__decap_12
XFILLER_223_562 vssd1_uq1 vssd1_uq1 vccd1_uq1 vccd1_uq1 sky130_fd_sc_hd__decap_8
XPHY_2408 vssd1_uq1 vccd1_uq1 sky130_fd_sc_hd__tapvpwrvgnd_1
XFILLER_184_1776 vssd1_uq1 vssd1_uq1 vccd1_uq1 vccd1_uq1 sky130_fd_sc_hd__decap_12
XFILLER_50_420 vssd1_uq1 vssd1_uq1 vccd1_uq1 vccd1_uq1 sky130_fd_sc_hd__decap_8
XFILLER_23_634 vssd1_uq1 vssd1_uq1 vccd1_uq1 vccd1_uq1 sky130_fd_sc_hd__decap_12
XFILLER_35_494 vssd1_uq1 vssd1_uq1 vccd1_uq1 vccd1_uq1 sky130_fd_sc_hd__decap_12
XFILLER_22_111 vssd1_uq1 vssd1_uq1 vccd1_uq1 vccd1_uq1 sky130_fd_sc_hd__decap_12
XPHY_2419 vssd1_uq1 vccd1_uq1 sky130_fd_sc_hd__tapvpwrvgnd_1
XFILLER_247_1497 vssd1_uq1 vssd1_uq1 vccd1_uq1 vccd1_uq1 sky130_fd_sc_hd__decap_12
XFILLER_221_2305 vssd1_uq1 vssd1_uq1 vccd1_uq1 vccd1_uq1 sky130_fd_sc_hd__decap_12
XFILLER_210_201 vssd1_uq1 vssd1_uq1 vccd1_uq1 vccd1_uq1 sky130_fd_sc_hd__decap_12
XFILLER_161_1006 vssd1_uq1 vssd1_uq1 vccd1_uq1 vccd1_uq1 sky130_fd_sc_hd__decap_12
XFILLER_223_595 vssd1_uq1 vssd1_uq1 vccd1_uq1 vccd1_uq1 sky130_fd_sc_hd__decap_12
XPHY_1707 vssd1_uq1 vccd1_uq1 sky130_fd_sc_hd__tapvpwrvgnd_1
XFILLER_50_453 vssd1_uq1 vssd1_uq1 vccd1_uq1 vccd1_uq1 sky130_fd_sc_hd__decap_12
XFILLER_22_144 vssd1_uq1 vssd1_uq1 vccd1_uq1 vccd1_uq1 sky130_fd_sc_hd__decap_12
XPHY_1718 vssd1_uq1 vccd1_uq1 sky130_fd_sc_hd__tapvpwrvgnd_1
XFILLER_221_2338 vssd1_uq1 vssd1_uq1 vccd1_uq1 vccd1_uq1 sky130_fd_sc_hd__decap_12
XFILLER_195_436 vssd1_uq1 vssd1_uq1 vccd1_uq1 vccd1_uq1 sky130_fd_sc_hd__decap_12
XFILLER_167_127 vssd1_uq1 vssd1_uq1 vccd1_uq1 vccd1_uq1 sky130_fd_sc_hd__decap_12
XFILLER_11_829 vssd1_uq1 vssd1_uq1 vccd1_uq1 vccd1_uq1 sky130_fd_sc_hd__decap_12
XPHY_1729 vssd1_uq1 vccd1_uq1 sky130_fd_sc_hd__tapvpwrvgnd_1
XFILLER_17_1432 vssd1_uq1 vssd1_uq1 vccd1_uq1 vccd1_uq1 sky130_fd_sc_hd__decap_12
XFILLER_143_2196 vssd1_uq1 vssd1_uq1 vccd1_uq1 vccd1_uq1 sky130_fd_sc_hd__decap_12
XFILLER_206_1161 vssd1_uq1 vssd1_uq1 vccd1_uq1 vccd1_uq1 sky130_fd_sc_hd__decap_8
XFILLER_50_486 vssd1_uq1 vssd1_uq1 vccd1_uq1 vccd1_uq1 sky130_fd_sc_hd__decap_12
XFILLER_22_188 vssd1_uq1 vssd1_uq1 vccd1_uq1 vccd1_uq1 sky130_fd_sc_hd__decap_3
XFILLER_241_1063 vssd1_uq1 vssd1_uq1 vccd1_uq1 vccd1_uq1 sky130_fd_sc_hd__decap_12
XFILLER_195_469 vssd1_uq1 vssd1_uq1 vccd1_uq1 vccd1_uq1 sky130_fd_sc_hd__decap_12
XFILLER_206_1194 vssd1_uq1 vssd1_uq1 vccd1_uq1 vccd1_uq1 sky130_fd_sc_hd__decap_12
XFILLER_13_1318 vssd1_uq1 vssd1_uq1 vccd1_uq1 vccd1_uq1 sky130_fd_sc_hd__decap_12
XFILLER_178_1503 vssd1_uq1 vssd1_uq1 vccd1_uq1 vccd1_uq1 sky130_fd_sc_hd__decap_8
XFILLER_148_363 vssd1_uq1 vssd1_uq1 vccd1_uq1 vccd1_uq1 sky130_fd_sc_hd__decap_8
XFILLER_241_1096 vssd1_uq1 vssd1_uq1 vccd1_uq1 vccd1_uq1 sky130_fd_sc_hd__decap_12
XFILLER_202_1047 vssd1_uq1 vssd1_uq1 vccd1_uq1 vccd1_uq1 sky130_fd_sc_hd__decap_8
XFILLER_148_396 vssd1_uq1 vssd1_uq1 vccd1_uq1 vccd1_uq1 sky130_fd_sc_hd__decap_12
XFILLER_178_1536 vssd1_uq1 vssd1_uq1 vccd1_uq1 vccd1_uq1 sky130_fd_sc_hd__decap_12
XFILLER_163_322 vssd1_uq1 vssd1_uq1 vccd1_uq1 vccd1_uq1 sky130_fd_sc_hd__decap_12
XFILLER_108_249 vssd1_uq1 vssd1_uq1 vccd1_uq1 vccd1_uq1 sky130_fd_sc_hd__decap_8
XFILLER_191_664 vssd1_uq1 vssd1_uq1 vccd1_uq1 vccd1_uq1 sky130_fd_sc_hd__decap_12
XFILLER_163_355 vssd1_uq1 vssd1_uq1 vccd1_uq1 vccd1_uq1 sky130_fd_sc_hd__decap_12
XFILLER_178_1569 vssd1_uq1 vssd1_uq1 vccd1_uq1 vccd1_uq1 sky130_fd_sc_hd__decap_12
XFILLER_123_208 vssd1_uq1 vssd1_uq1 vccd1_uq1 vccd1_uq1 sky130_fd_sc_hd__decap_12
XFILLER_195_1861 vssd1_uq1 vssd1_uq1 vccd1_uq1 vccd1_uq1 sky130_fd_sc_hd__decap_12
XFILLER_191_697 vssd1_uq1 vssd1_uq1 vccd1_uq1 vccd1_uq1 sky130_fd_sc_hd__decap_12
XFILLER_2_527 vssd1_uq1 vssd1_uq1 vccd1_uq1 vccd1_uq1 sky130_fd_sc_hd__decap_8
XFILLER_195_1894 vssd1_uq1 vssd1_uq1 vccd1_uq1 vccd1_uq1 sky130_fd_sc_hd__decap_12
XFILLER_172_1113 vssd1_uq1 vssd1_uq1 vccd1_uq1 vccd1_uq1 sky130_fd_sc_hd__decap_12
XFILLER_116_282 vssd1_uq1 vssd1_uq1 vccd1_uq1 vccd1_uq1 sky130_fd_sc_hd__decap_12
XFILLER_144_591 vssd1_uq1 vssd1_uq1 vccd1_uq1 vccd1_uq1 sky130_fd_sc_hd__decap_8
XFILLER_191_1747 vssd1_uq1 vssd1_uq1 vccd1_uq1 vccd1_uq1 sky130_fd_sc_hd__decap_12
XFILLER_77_15 vssd1_uq1 vssd1_uq1 vccd1_uq1 vccd1_uq1 sky130_fd_sc_hd__decap_12
XFILLER_78_807 vssd1_uq1 vssd1_uq1 vccd1_uq1 vccd1_uq1 sky130_fd_sc_hd__decap_12
XFILLER_219_1588 vssd1_uq1 vssd1_uq1 vccd1_uq1 vccd1_uq1 sky130_fd_sc_hd__decap_8
XFILLER_81_1018 vssd1_uq1 vssd1_uq1 vccd1_uq1 vccd1_uq1 sky130_fd_sc_hd__decap_8
XFILLER_115_2232 vssd1_uq1 vssd1_uq1 vccd1_uq1 vccd1_uq1 sky130_fd_sc_hd__decap_12
XFILLER_131_241 vssd1_uq1 vssd1_uq1 vccd1_uq1 vccd1_uq1 sky130_fd_sc_hd__decap_12
XFILLER_8_1611 vssd1_uq1 vssd1_uq1 vccd1_uq1 vccd1_uq1 sky130_fd_sc_hd__decap_8
XFILLER_154_2292 vssd1_uq1 vssd1_uq1 vccd1_uq1 vccd1_uq1 sky130_fd_sc_hd__decap_12
XFILLER_104_477 vssd1_uq1 vssd1_uq1 vccd1_uq1 vccd1_uq1 sky130_fd_sc_hd__decap_8
XFILLER_8_1644 vssd1_uq1 vssd1_uq1 vccd1_uq1 vccd1_uq1 sky130_fd_sc_hd__decap_12
XFILLER_213_1132 vssd1_uq1 vssd1_uq1 vccd1_uq1 vccd1_uq1 sky130_fd_sc_hd__decap_8
XFILLER_86_840 vssd1_uq1 vssd1_uq1 vccd1_uq1 vccd1_uq1 sky130_fd_sc_hd__decap_12
XFILLER_115_2287 vssd1_uq1 vssd1_uq1 vccd1_uq1 vccd1_uq1 sky130_fd_sc_hd__decap_12
XFILLER_219_835 vssd1_uq1 vssd1_uq1 vccd1_uq1 vccd1_uq1 sky130_fd_sc_hd__decap_12
XFILLER_19_907 vssd1_uq1 vssd1_uq1 vccd1_uq1 vccd1_uq1 sky130_fd_sc_hd__decap_12
XFILLER_8_1677 vssd1_uq1 vssd1_uq1 vccd1_uq1 vccd1_uq1 sky130_fd_sc_hd__decap_12
XFILLER_213_1165 vssd1_uq1 vssd1_uq1 vccd1_uq1 vccd1_uq1 sky130_fd_sc_hd__decap_12
XFILLER_189_1621 vssd1_uq1 vssd1_uq1 vccd1_uq1 vccd1_uq1 sky130_fd_sc_hd__decap_12
XFILLER_232_1788 vssd1_uq1 vssd1_uq1 vccd1_uq1 vccd1_uq1 sky130_fd_sc_hd__decap_8
XFILLER_219_868 vssd1_uq1 vssd1_uq1 vccd1_uq1 vccd1_uq1 sky130_fd_sc_hd__decap_12
XPHY_5001 vssd1_uq1 vccd1_uq1 sky130_fd_sc_hd__tapvpwrvgnd_1
XPHY_5012 vssd1_uq1 vccd1_uq1 sky130_fd_sc_hd__tapvpwrvgnd_1
XFILLER_46_726 vssd1_uq1 vssd1_uq1 vccd1_uq1 vccd1_uq1 sky130_fd_sc_hd__decap_12
XFILLER_213_1198 vssd1_uq1 vssd1_uq1 vccd1_uq1 vccd1_uq1 sky130_fd_sc_hd__decap_12
XPHY_5023 vssd1_uq1 vccd1_uq1 sky130_fd_sc_hd__tapvpwrvgnd_1
XFILLER_189_1654 vssd1_uq1 vssd1_uq1 vccd1_uq1 vccd1_uq1 sky130_fd_sc_hd__decap_12
XPHY_5034 vssd1_uq1 vccd1_uq1 sky130_fd_sc_hd__tapvpwrvgnd_1
XFILLER_93_36 vssd1_uq1 vssd1_uq1 vccd1_uq1 vccd1_uq1 sky130_fd_sc_hd__decap_12
XFILLER_185_1507 vssd1_uq1 vssd1_uq1 vccd1_uq1 vccd1_uq1 sky130_fd_sc_hd__decap_12
XPHY_5045 vssd1_uq1 vccd1_uq1 sky130_fd_sc_hd__tapvpwrvgnd_1
XPHY_4300 vssd1_uq1 vccd1_uq1 sky130_fd_sc_hd__tapvpwrvgnd_1
XANTENNA_input127_A la_data_in[64] vssd1_uq1 vssd1_uq1 vccd1_uq1 vccd1_uq1 sky130_fd_sc_hd__diode_2
XPHY_4311 vssd1_uq1 vccd1_uq1 sky130_fd_sc_hd__tapvpwrvgnd_1
XFILLER_172_3 vssd1_uq1 vssd1_uq1 vccd1_uq1 vccd1_uq1 sky130_fd_sc_hd__decap_12
XPHY_5056 vssd1_uq1 vccd1_uq1 sky130_fd_sc_hd__tapvpwrvgnd_1
XFILLER_93_58 vssd1_uq1 vssd1_uq1 vccd1_uq1 vccd1_uq1 sky130_fd_sc_hd__decap_12
XFILLER_2_1243 vssd1_uq1 vssd1_uq1 vccd1_uq1 vccd1_uq1 sky130_fd_sc_hd__decap_8
XPHY_5067 vssd1_uq1 vccd1_uq1 sky130_fd_sc_hd__tapvpwrvgnd_1
XPHY_4322 vssd1_uq1 vccd1_uq1 sky130_fd_sc_hd__tapvpwrvgnd_1
XFILLER_26_30 vssd1_uq1 vssd1_uq1 vccd1_uq1 vccd1_uq1 sky130_fd_sc_hd__decap_12
XPHY_4333 vssd1_uq1 vccd1_uq1 sky130_fd_sc_hd__tapvpwrvgnd_1
XPHY_5078 vssd1_uq1 vccd1_uq1 sky130_fd_sc_hd__tapvpwrvgnd_1
XPHY_5089 vssd1_uq1 vccd1_uq1 sky130_fd_sc_hd__tapvpwrvgnd_1
XPHY_4344 vssd1_uq1 vccd1_uq1 sky130_fd_sc_hd__tapvpwrvgnd_1
XFILLER_45_269 vssd1_uq1 vssd1_uq1 vccd1_uq1 vccd1_uq1 sky130_fd_sc_hd__decap_12
XPHY_4355 vssd1_uq1 vccd1_uq1 sky130_fd_sc_hd__tapvpwrvgnd_1
XPHY_3610 vssd1_uq1 vccd1_uq1 sky130_fd_sc_hd__tapvpwrvgnd_1
XFILLER_2_1276 vssd1_uq1 vssd1_uq1 vccd1_uq1 vccd1_uq1 sky130_fd_sc_hd__fill_1
XPHY_4366 vssd1_uq1 vccd1_uq1 sky130_fd_sc_hd__tapvpwrvgnd_1
XPHY_3621 vssd1_uq1 vccd1_uq1 sky130_fd_sc_hd__tapvpwrvgnd_1
XFILLER_2_1287 vssd1_uq1 vssd1_uq1 vccd1_uq1 vccd1_uq1 sky130_fd_sc_hd__decap_12
XFILLER_199_742 vssd1_uq1 vssd1_uq1 vccd1_uq1 vccd1_uq1 sky130_fd_sc_hd__decap_12
XFILLER_42_921 vssd1_uq1 vssd1_uq1 vccd1_uq1 vccd1_uq1 sky130_fd_sc_hd__decap_12
XPHY_3632 vssd1_uq1 vccd1_uq1 sky130_fd_sc_hd__tapvpwrvgnd_1
XPHY_4377 vssd1_uq1 vccd1_uq1 sky130_fd_sc_hd__tapvpwrvgnd_1
XPHY_4388 vssd1_uq1 vccd1_uq1 sky130_fd_sc_hd__tapvpwrvgnd_1
XFILLER_187_904 vssd1_uq1 vssd1_uq1 vccd1_uq1 vccd1_uq1 sky130_fd_sc_hd__decap_8
XPHY_3643 vssd1_uq1 vccd1_uq1 sky130_fd_sc_hd__tapvpwrvgnd_1
XFILLER_26_85 vssd1_uq1 vssd1_uq1 vccd1_uq1 vccd1_uq1 sky130_fd_sc_hd__fill_1
XPHY_4399 vssd1_uq1 vccd1_uq1 sky130_fd_sc_hd__tapvpwrvgnd_1
XPHY_3654 vssd1_uq1 vccd1_uq1 sky130_fd_sc_hd__tapvpwrvgnd_1
XFILLER_42_954 vssd1_uq1 vssd1_uq1 vccd1_uq1 vccd1_uq1 sky130_fd_sc_hd__decap_12
XFILLER_74_2271 vssd1_uq1 vssd1_uq1 vccd1_uq1 vccd1_uq1 sky130_fd_sc_hd__decap_8
XFILLER_226_1548 vssd1_uq1 vssd1_uq1 vccd1_uq1 vccd1_uq1 sky130_fd_sc_hd__decap_12
XPHY_3665 vssd1_uq1 vccd1_uq1 sky130_fd_sc_hd__tapvpwrvgnd_1
XPHY_2920 vssd1_uq1 vccd1_uq1 sky130_fd_sc_hd__tapvpwrvgnd_1
XPHY_3676 vssd1_uq1 vccd1_uq1 sky130_fd_sc_hd__tapvpwrvgnd_1
XFILLER_126_2361 vssd1_uq1 vssd1_uq1 vccd1_uq1 vccd1_uq1 sky130_fd_sc_hd__decap_3
XFILLER_35_2244 vssd1_uq1 vssd1_uq1 vccd1_uq1 vccd1_uq1 sky130_fd_sc_hd__decap_6
XPHY_2931 vssd1_uq1 vccd1_uq1 sky130_fd_sc_hd__tapvpwrvgnd_1
XFILLER_187_937 vssd1_uq1 vssd1_uq1 vccd1_uq1 vccd1_uq1 sky130_fd_sc_hd__decap_12
XFILLER_159_628 vssd1_uq1 vssd1_uq1 vccd1_uq1 vccd1_uq1 sky130_fd_sc_hd__decap_12
XPHY_2942 vssd1_uq1 vccd1_uq1 sky130_fd_sc_hd__tapvpwrvgnd_1
XPHY_3687 vssd1_uq1 vccd1_uq1 sky130_fd_sc_hd__tapvpwrvgnd_1
XFILLER_161_2263 vssd1_uq1 vssd1_uq1 vccd1_uq1 vccd1_uq1 sky130_fd_sc_hd__decap_12
XPHY_3698 vssd1_uq1 vccd1_uq1 sky130_fd_sc_hd__tapvpwrvgnd_1
XPHY_2953 vssd1_uq1 vccd1_uq1 sky130_fd_sc_hd__tapvpwrvgnd_1
XFILLER_9_115 vssd1_uq1 vssd1_uq1 vccd1_uq1 vccd1_uq1 sky130_fd_sc_hd__decap_12
XPHY_2964 vssd1_uq1 vccd1_uq1 sky130_fd_sc_hd__tapvpwrvgnd_1
XFILLER_243_1873 vssd1_uq1 vssd1_uq1 vccd1_uq1 vccd1_uq1 sky130_fd_sc_hd__decap_8
XPHY_2975 vssd1_uq1 vccd1_uq1 sky130_fd_sc_hd__tapvpwrvgnd_1
XFILLER_122_2247 vssd1_uq1 vssd1_uq1 vccd1_uq1 vccd1_uq1 sky130_fd_sc_hd__decap_12
XANTENNA_input92_A la_data_in[32] vssd1_uq1 vssd1_uq1 vccd1_uq1 vccd1_uq1 sky130_fd_sc_hd__diode_2
XFILLER_35_2299 vssd1_uq1 vssd1_uq1 vccd1_uq1 vccd1_uq1 sky130_fd_sc_hd__decap_8
XPHY_2986 vssd1_uq1 vccd1_uq1 sky130_fd_sc_hd__tapvpwrvgnd_1
X_294_ vssd1_uq1 vssd1_uq1 vccd1_uq1 vccd1_uq1 _294_/HI _294_/LO sky130_fd_sc_hd__conb_1
XPHY_2997 vssd1_uq1 vccd1_uq1 sky130_fd_sc_hd__tapvpwrvgnd_1
XFILLER_220_1125 vssd1_uq1 vssd1_uq1 vccd1_uq1 vccd1_uq1 sky130_fd_sc_hd__decap_12
XFILLER_195_970 vssd1_uq1 vssd1_uq1 vccd1_uq1 vccd1_uq1 sky130_fd_sc_hd__decap_12
XFILLER_155_823 vssd1_uq1 vssd1_uq1 vccd1_uq1 vccd1_uq1 sky130_fd_sc_hd__decap_12
XFILLER_127_514 vssd1_uq1 vssd1_uq1 vccd1_uq1 vccd1_uq1 sky130_fd_sc_hd__decap_12
XFILLER_6_822 vssd1_uq1 vssd1_uq1 vccd1_uq1 vccd1_uq1 sky130_fd_sc_hd__decap_12
XFILLER_155_856 vssd1_uq1 vssd1_uq1 vccd1_uq1 vccd1_uq1 sky130_fd_sc_hd__decap_12
XFILLER_202_1581 vssd1_uq1 vssd1_uq1 vccd1_uq1 vccd1_uq1 sky130_fd_sc_hd__decap_12
XFILLER_115_709 vssd1_uq1 vssd1_uq1 vccd1_uq1 vccd1_uq1 sky130_fd_sc_hd__decap_12
XFILLER_194_2061 vssd1_uq1 vssd1_uq1 vccd1_uq1 vccd1_uq1 sky130_fd_sc_hd__decap_12
XFILLER_108_750 vssd1_uq1 vssd1_uq1 vccd1_uq1 vccd1_uq1 sky130_fd_sc_hd__decap_12
XFILLER_181_163 vssd1_uq1 vssd1_uq1 vccd1_uq1 vccd1_uq1 sky130_fd_sc_hd__decap_8
XFILLER_108_783 vssd1_uq1 vssd1_uq1 vccd1_uq1 vccd1_uq1 sky130_fd_sc_hd__decap_12
XFILLER_237_1633 vssd1_uq1 vssd1_uq1 vccd1_uq1 vccd1_uq1 sky130_fd_sc_hd__decap_12
XFILLER_194_2094 vssd1_uq1 vssd1_uq1 vccd1_uq1 vccd1_uq1 sky130_fd_sc_hd__decap_12
XFILLER_174_1923 vssd1_uq1 vssd1_uq1 vccd1_uq1 vccd1_uq1 sky130_fd_sc_hd__decap_12
XFILLER_181_196 vssd1_uq1 vssd1_uq1 vccd1_uq1 vccd1_uq1 sky130_fd_sc_hd__decap_12
XFILLER_81_2220 vssd1_uq1 vssd1_uq1 vccd1_uq1 vccd1_uq1 sky130_fd_sc_hd__decap_12
XFILLER_237_1666 vssd1_uq1 vssd1_uq1 vccd1_uq1 vccd1_uq1 sky130_fd_sc_hd__decap_12
XFILLER_123_742 vssd1_uq1 vssd1_uq1 vccd1_uq1 vccd1_uq1 sky130_fd_sc_hd__decap_12
XFILLER_111_904 vssd1_uq1 vssd1_uq1 vccd1_uq1 vccd1_uq1 sky130_fd_sc_hd__decap_8
XFILLER_233_1519 vssd1_uq1 vssd1_uq1 vccd1_uq1 vccd1_uq1 sky130_fd_sc_hd__decap_12
XFILLER_68_306 vssd1_uq1 vssd1_uq1 vccd1_uq1 vccd1_uq1 sky130_fd_sc_hd__decap_8
XFILLER_81_2275 vssd1_uq1 vssd1_uq1 vccd1_uq1 vccd1_uq1 sky130_fd_sc_hd__decap_12
XFILLER_111_937 vssd1_uq1 vssd1_uq1 vccd1_uq1 vccd1_uq1 sky130_fd_sc_hd__decap_12
XFILLER_231_1210 vssd1_uq1 vssd1_uq1 vccd1_uq1 vccd1_uq1 sky130_fd_sc_hd__decap_12
XFILLER_3_56 vssd1_uq1 vssd1_uq1 vccd1_uq1 vccd1_uq1 sky130_fd_sc_hd__fill_1
XFILLER_68_339 vssd1_uq1 vssd1_uq1 vccd1_uq1 vccd1_uq1 sky130_fd_sc_hd__decap_12
XFILLER_96_648 vssd1_uq1 vssd1_uq1 vccd1_uq1 vccd1_uq1 sky130_fd_sc_hd__decap_8
XFILLER_42_2259 vssd1_uq1 vssd1_uq1 vccd1_uq1 vccd1_uq1 sky130_fd_sc_hd__decap_12
XFILLER_215_1975 vssd1_uq1 vssd1_uq1 vccd1_uq1 vccd1_uq1 sky130_fd_sc_hd__decap_12
XFILLER_3_89 vssd1_uq1 vssd1_uq1 vccd1_uq1 vccd1_uq1 sky130_fd_sc_hd__decap_12
XFILLER_67_70 vssd1_uq1 vssd1_uq1 vccd1_uq1 vccd1_uq1 sky130_fd_sc_hd__decap_12
XFILLER_209_334 vssd1_uq1 vssd1_uq1 vccd1_uq1 vccd1_uq1 sky130_fd_sc_hd__decap_8
XFILLER_76_372 vssd1_uq1 vssd1_uq1 vccd1_uq1 vccd1_uq1 sky130_fd_sc_hd__decap_12
XFILLER_237_676 vssd1_uq1 vssd1_uq1 vccd1_uq1 vccd1_uq1 sky130_fd_sc_hd__decap_8
XFILLER_209_367 vssd1_uq1 vssd1_uq1 vccd1_uq1 vccd1_uq1 sky130_fd_sc_hd__decap_12
XFILLER_36_225 vssd1_uq1 vssd1_uq1 vccd1_uq1 vccd1_uq1 sky130_fd_sc_hd__decap_12
XFILLER_64_534 vssd1_uq1 vssd1_uq1 vccd1_uq1 vccd1_uq1 sky130_fd_sc_hd__decap_8
XPHY_6280 vssd1_uq1 vccd1_uq1 sky130_fd_sc_hd__tapvpwrvgnd_1
XFILLER_224_315 vssd1_uq1 vssd1_uq1 vccd1_uq1 vccd1_uq1 sky130_fd_sc_hd__decap_12
XPHY_6291 vssd1_uq1 vccd1_uq1 sky130_fd_sc_hd__tapvpwrvgnd_1